@<TRIPOS>MOLECULE
guest-s14_vm2.mol2 : vm2 ligand conformer 1
          26          25           1
SMALL
USER_CHARGES
 
@<TRIPOS>ATOM
       1    C1      19.905242   19.310654   18.816232 C.3        1 MOL1        -0.2400
       2    H1      20.294539   20.336914   18.794256 H          1 MOL1         0.0971
       3    H2      20.278689   18.789459   17.925198 H          1 MOL1         0.0971
       4    H3      18.810784   19.358496   18.744701 H          1 MOL1         0.0971
       5    C2      20.345723   18.577600   20.101041 C.3        1 MOL1        -0.1385
       6    H4      21.442719   18.515742   20.127544 H          1 MOL1         0.0960
       7    H5      19.970431   17.544851   20.078356 H          1 MOL1         0.0960
       8    C3      19.832668   19.291246   21.371390 C.3        1 MOL1        -0.1409
       9    H6      20.208340   20.323732   21.388345 H          1 MOL1         0.0960
      10    H7      18.736016   19.352628   21.339244 H          1 MOL1         0.0960
      11    C4      20.271902   18.560157   22.660169 C.3        1 MOL1        -0.1409
      12    H8      21.368624   18.498931   22.691308 H          1 MOL1         0.0960
      13    H9      19.896194   17.527667   22.642165 H          1 MOL1         0.0960
      14    C5      19.758287   19.274504   23.930780 C.3        1 MOL1        -0.1409
      15    H10     20.133955   20.307134   23.949228 H          1 MOL1         0.0960
      16    H11     18.661443   19.335945   23.900008 H          1 MOL1         0.0960
      17    C6      20.196808   18.544302   25.219269 C.3        1 MOL1        -0.1450
      18    H12     21.292832   18.485485   25.256417 H          1 MOL1         0.0960
      19    H13     19.818753   17.513265   25.207123 H          1 MOL1         0.0960
      20    C7      19.680239   19.263714   26.477703 C.3        1 MOL1         0.0172
      21    H14     20.067622   20.285865   26.502603 H          1 MOL1         0.0934
      22    H15     18.588125   19.310181   26.453059 H          1 MOL1         0.0934
      23    N1      20.090131   18.576824   27.764415 N.4        1 MOL1        -0.5956
      24    H16     19.735945   19.071996   28.590141 H          1 MOL1         0.3624
      25    H17     21.109456   18.525017   27.862158 H          1 MOL1         0.3624
      26    H18     19.732799   17.617184   27.816069 H          1 MOL1         0.3624
@<TRIPOS>BOND
    1     1     2    1
    2     1     3    1
    3     1     4    1
    4     1     5    1
    5     5     6    1
    6     5     7    1
    7     5     8    1
    8     8     9    1
    9     8    10    1
   10     8    11    1
   11    11    12    1
   12    11    13    1
   13    11    14    1
   14    14    15    1
   15    14    16    1
   16    14    17    1
   17    17    18    1
   18    17    19    1
   19    17    20    1
   20    20    21    1
   21    20    22    1
   22    20    23    1
   23    23    24    1
   24    23    25    1
   25    23    26    1
@<TRIPOS>SUBSTRUCTURE
       1 MOL1            1 RESIDUE      1      MOL     
@<SCITEGIC>MOL_PROPERTY
VM2 Rank
SciTegic.value.IntegerValue
1

@<SCITEGIC>MOL_PROPERTY
Conf_Id
SciTegic.value.IntegerValue
316

@<SCITEGIC>MOL_PROPERTY
Probability
SciTegic.value.DoubleValue
7.44

@<SCITEGIC>MOL_PROPERTY
Sum Probability
SciTegic.value.DoubleValue
7.44

@<SCITEGIC>MOL_PROPERTY
Delta G
SciTegic.value.DoubleValue
0.000

@<SCITEGIC>MOL_PROPERTY
G
SciTegic.value.DoubleValue
48.261

@<SCITEGIC>MOL_PROPERTY
E
SciTegic.value.DoubleValue
15.909

@<SCITEGIC>MOL_PROPERTY
-TS
SciTegic.value.DoubleValue
32.352

@<SCITEGIC>MOL_PROPERTY
U+W
SciTegic.value.DoubleValue
-5.553

@<SCITEGIC>MOL_PROPERTY
U
SciTegic.value.DoubleValue
47.192

@<SCITEGIC>MOL_PROPERTY
W
SciTegic.value.DoubleValue
-52.744

@<SCITEGIC>MOL_PROPERTY
W(PB)
SciTegic.value.DoubleValue
-55.135

@<SCITEGIC>MOL_PROPERTY
W(SA)
SciTegic.value.DoubleValue
2.391

@<SCITEGIC>MOL_PROPERTY
Valence
SciTegic.value.DoubleValue
2.156

@<SCITEGIC>MOL_PROPERTY
Coulomb
SciTegic.value.DoubleValue
44.449

@<SCITEGIC>MOL_PROPERTY
VdW
SciTegic.value.DoubleValue
0.587

@<SCITEGIC>MOL_PROPERTY
VdW6
SciTegic.value.DoubleValue
-5.761

@<SCITEGIC>MOL_PROPERTY
VdW12
SciTegic.value.DoubleValue
6.348

@<SCITEGIC>MOL_PROPERTY
Bond
SciTegic.value.DoubleValue
0.129

@<SCITEGIC>MOL_PROPERTY
Angle
SciTegic.value.DoubleValue
0.393

@<SCITEGIC>MOL_PROPERTY
Pdih
SciTegic.value.DoubleValue
1.634

@<SCITEGIC>MOL_PROPERTY
Idih
SciTegic.value.DoubleValue
0.000

@<SCITEGIC>MOL_PROPERTY
Tether
SciTegic.value.DoubleValue
0.000

@<TRIPOS>MOLECULE
guest-s14_vm2.mol2 : vm2 ligand conformer 2
          26          25           1
SMALL
USER_CHARGES
 
@<TRIPOS>ATOM
       1    C1      20.140804   19.649892   19.000844 C.3        1 MOL1        -0.2400
       2    H1      19.134736   20.085336   18.942032 H          1 MOL1         0.0971
       3    H2      20.862085   20.469640   19.114896 H          1 MOL1         0.0971
       4    H3      20.347700   19.149431   18.045971 H          1 MOL1         0.0971
       5    C2      20.245561   18.651602   20.173266 C.3        1 MOL1        -0.1385
       6    H4      21.251011   18.207932   20.185546 H          1 MOL1         0.0960
       7    H5      19.536981   17.826685   20.014040 H          1 MOL1         0.0960
       8    C3      19.958635   19.331014   21.530603 C.3        1 MOL1        -0.1409
       9    H6      20.667835   20.156176   21.684106 H          1 MOL1         0.0960
      10    H7      18.953625   19.774944   21.512662 H          1 MOL1         0.0960
      11    C4      20.062481   18.334331   22.707151 C.3        1 MOL1        -0.1409
      12    H8      21.067770   17.890930   22.724541 H          1 MOL1         0.0960
      13    H9      19.353638   17.509142   22.551933 H          1 MOL1         0.0960
      14    C5      19.774803   19.014235   24.064872 C.3        1 MOL1        -0.1409
      15    H10     20.482642   19.840815   24.212421 H          1 MOL1         0.0960
      16    H11     18.768302   19.455098   24.048376 H          1 MOL1         0.0960
      17    C6      19.880080   18.015076   25.241275 C.3        1 MOL1        -0.1450
      18    H12     20.892248   17.591403   25.286104 H          1 MOL1         0.0960
      19    H13     19.195874   17.174075   25.066460 H          1 MOL1         0.0960
      20    C7      19.529509   18.654435   26.598733 C.3        1 MOL1         0.0172
      21    H14     18.524421   19.082609   26.555380 H          1 MOL1         0.0934
      22    H15     19.538967   17.884757   27.375312 H          1 MOL1         0.0934
      23    N1      20.489129   19.748416   27.024255 N.4        1 MOL1        -0.5956
      24    H16     20.235504   20.143698   27.936270 H          1 MOL1         0.3624
      25    H17     20.502127   20.523822   26.354544 H          1 MOL1         0.3624
      26    H18     21.450398   19.401395   27.105354 H          1 MOL1         0.3624
@<TRIPOS>BOND
    1     1     2    1
    2     1     3    1
    3     1     4    1
    4     1     5    1
    5     5     6    1
    6     5     7    1
    7     5     8    1
    8     8     9    1
    9     8    10    1
   10     8    11    1
   11    11    12    1
   12    11    13    1
   13    11    14    1
   14    14    15    1
   15    14    16    1
   16    14    17    1
   17    17    18    1
   18    17    19    1
   19    17    20    1
   20    20    21    1
   21    20    22    1
   22    20    23    1
   23    23    24    1
   24    23    25    1
   25    23    26    1
@<TRIPOS>SUBSTRUCTURE
       1 MOL1            1 RESIDUE      1      MOL     
@<SCITEGIC>MOL_PROPERTY
VM2 Rank
SciTegic.value.IntegerValue
2

@<SCITEGIC>MOL_PROPERTY
Conf_Id
SciTegic.value.IntegerValue
307

@<SCITEGIC>MOL_PROPERTY
Probability
SciTegic.value.DoubleValue
4.91

@<SCITEGIC>MOL_PROPERTY
Sum Probability
SciTegic.value.DoubleValue
12.34

@<SCITEGIC>MOL_PROPERTY
Delta G
SciTegic.value.DoubleValue
0.248

@<SCITEGIC>MOL_PROPERTY
G
SciTegic.value.DoubleValue
48.509

@<SCITEGIC>MOL_PROPERTY
E
SciTegic.value.DoubleValue
16.054

@<SCITEGIC>MOL_PROPERTY
-TS
SciTegic.value.DoubleValue
32.455

@<SCITEGIC>MOL_PROPERTY
U+W
SciTegic.value.DoubleValue
-5.408

@<SCITEGIC>MOL_PROPERTY
U
SciTegic.value.DoubleValue
47.845

@<SCITEGIC>MOL_PROPERTY
W
SciTegic.value.DoubleValue
-53.253

@<SCITEGIC>MOL_PROPERTY
W(PB)
SciTegic.value.DoubleValue
-55.604

@<SCITEGIC>MOL_PROPERTY
W(SA)
SciTegic.value.DoubleValue
2.351

@<SCITEGIC>MOL_PROPERTY
Valence
SciTegic.value.DoubleValue
2.258

@<SCITEGIC>MOL_PROPERTY
Coulomb
SciTegic.value.DoubleValue
44.894

@<SCITEGIC>MOL_PROPERTY
VdW
SciTegic.value.DoubleValue
0.694

@<SCITEGIC>MOL_PROPERTY
VdW6
SciTegic.value.DoubleValue
-6.285

@<SCITEGIC>MOL_PROPERTY
VdW12
SciTegic.value.DoubleValue
6.979

@<SCITEGIC>MOL_PROPERTY
Bond
SciTegic.value.DoubleValue
0.149

@<SCITEGIC>MOL_PROPERTY
Angle
SciTegic.value.DoubleValue
0.434

@<SCITEGIC>MOL_PROPERTY
Pdih
SciTegic.value.DoubleValue
1.675

@<SCITEGIC>MOL_PROPERTY
Idih
SciTegic.value.DoubleValue
0.000

@<SCITEGIC>MOL_PROPERTY
Tether
SciTegic.value.DoubleValue
0.000

@<TRIPOS>MOLECULE
guest-s14_vm2.mol2 : vm2 ligand conformer 3
          26          25           1
SMALL
USER_CHARGES
 
@<TRIPOS>ATOM
       1    C1      19.492550   19.222324   18.979176 C.3        1 MOL1        -0.2400
       2    H1      19.489951   20.319868   18.953984 H          1 MOL1         0.0971
       3    H2      19.915577   18.864535   18.031503 H          1 MOL1         0.0971
       4    H3      18.451212   18.879078   19.034278 H          1 MOL1         0.0971
       5    C2      20.313962   18.696807   20.175523 C.3        1 MOL1        -0.1385
       6    H4      21.357183   19.027689   20.074859 H          1 MOL1         0.0960
       7    H5      20.326477   17.598021   20.154560 H          1 MOL1         0.0960
       8    C3      19.739238   19.186279   21.523263 C.3        1 MOL1        -0.1409
       9    H6      19.726687   20.284937   21.538572 H          1 MOL1         0.0960
      10    H7      18.695778   18.855200   21.618124 H          1 MOL1         0.0960
      11    C4      20.559232   18.661977   22.723740 C.3        1 MOL1        -0.1409
      12    H8      21.602682   18.992674   22.627097 H          1 MOL1         0.0960
      13    H9      20.571118   17.563286   22.707901 H          1 MOL1         0.0960
      14    C5      19.984434   19.152449   24.071882 C.3        1 MOL1        -0.1409
      15    H10     19.975365   20.251225   24.088764 H          1 MOL1         0.0960
      16    H11     18.940443   18.823501   24.160869 H          1 MOL1         0.0960
      17    C6      20.806132   18.625789   25.272204 C.3        1 MOL1        -0.1450
      18    H12     21.855392   18.928039   25.155251 H          1 MOL1         0.0960
      19    H13     20.795731   17.527713   25.282892 H          1 MOL1         0.0960
      20    C7      20.293462   19.158215   26.624264 C.3        1 MOL1         0.0172
      21    H14     20.960553   18.822188   27.422789 H          1 MOL1         0.0934
      22    H15     20.296985   20.251517   26.614629 H          1 MOL1         0.0934
      23    N1      18.891990   18.695159   26.970948 N.4        1 MOL1        -0.5956
      24    H16     18.205827   19.009618   26.277960 H          1 MOL1         0.3624
      25    H17     18.586187   19.055901   27.881275 H          1 MOL1         0.3624
      26    H18     18.829369   17.672942   27.017740 H          1 MOL1         0.3624
@<TRIPOS>BOND
    1     1     2    1
    2     1     3    1
    3     1     4    1
    4     1     5    1
    5     5     6    1
    6     5     7    1
    7     5     8    1
    8     8     9    1
    9     8    10    1
   10     8    11    1
   11    11    12    1
   12    11    13    1
   13    11    14    1
   14    14    15    1
   15    14    16    1
   16    14    17    1
   17    17    18    1
   18    17    19    1
   19    17    20    1
   20    20    21    1
   21    20    22    1
   22    20    23    1
   23    23    24    1
   24    23    25    1
   25    23    26    1
@<TRIPOS>SUBSTRUCTURE
       1 MOL1            1 RESIDUE      1      MOL     
@<SCITEGIC>MOL_PROPERTY
VM2 Rank
SciTegic.value.IntegerValue
3

@<SCITEGIC>MOL_PROPERTY
Conf_Id
SciTegic.value.IntegerValue
925

@<SCITEGIC>MOL_PROPERTY
Probability
SciTegic.value.DoubleValue
4.78

@<SCITEGIC>MOL_PROPERTY
Sum Probability
SciTegic.value.DoubleValue
17.13

@<SCITEGIC>MOL_PROPERTY
Delta G
SciTegic.value.DoubleValue
0.263

@<SCITEGIC>MOL_PROPERTY
G
SciTegic.value.DoubleValue
48.525

@<SCITEGIC>MOL_PROPERTY
E
SciTegic.value.DoubleValue
16.069

@<SCITEGIC>MOL_PROPERTY
-TS
SciTegic.value.DoubleValue
32.456

@<SCITEGIC>MOL_PROPERTY
U+W
SciTegic.value.DoubleValue
-5.393

@<SCITEGIC>MOL_PROPERTY
U
SciTegic.value.DoubleValue
47.845

@<SCITEGIC>MOL_PROPERTY
W
SciTegic.value.DoubleValue
-53.238

@<SCITEGIC>MOL_PROPERTY
W(PB)
SciTegic.value.DoubleValue
-55.587

@<SCITEGIC>MOL_PROPERTY
W(SA)
SciTegic.value.DoubleValue
2.349

@<SCITEGIC>MOL_PROPERTY
Valence
SciTegic.value.DoubleValue
2.258

@<SCITEGIC>MOL_PROPERTY
Coulomb
SciTegic.value.DoubleValue
44.893

@<SCITEGIC>MOL_PROPERTY
VdW
SciTegic.value.DoubleValue
0.694

@<SCITEGIC>MOL_PROPERTY
VdW6
SciTegic.value.DoubleValue
-6.285

@<SCITEGIC>MOL_PROPERTY
VdW12
SciTegic.value.DoubleValue
6.978

@<SCITEGIC>MOL_PROPERTY
Bond
SciTegic.value.DoubleValue
0.149

@<SCITEGIC>MOL_PROPERTY
Angle
SciTegic.value.DoubleValue
0.434

@<SCITEGIC>MOL_PROPERTY
Pdih
SciTegic.value.DoubleValue
1.675

@<SCITEGIC>MOL_PROPERTY
Idih
SciTegic.value.DoubleValue
0.000

@<SCITEGIC>MOL_PROPERTY
Tether
SciTegic.value.DoubleValue
0.000

@<TRIPOS>MOLECULE
guest-s14_vm2.mol2 : vm2 ligand conformer 4
          26          25           1
SMALL
USER_CHARGES
 
@<TRIPOS>ATOM
       1    C1      19.768730   18.853359   18.989680 C.3        1 MOL1        -0.2400
       2    H1      20.547450   19.575037   18.710359 H          1 MOL1         0.0971
       3    H2      19.777842   18.043954   18.248177 H          1 MOL1         0.0971
       4    H3      18.795918   19.358113   18.925647 H          1 MOL1         0.0971
       5    C2      20.012131   18.295788   20.408121 C.3        1 MOL1        -0.1385
       6    H4      20.975927   17.768098   20.431946 H          1 MOL1         0.0960
       7    H5      19.237899   17.552711   20.645443 H          1 MOL1         0.0960
       8    C3      20.004170   19.415643   21.472181 C.3        1 MOL1        -0.1409
       9    H6      20.777646   20.157187   21.228707 H          1 MOL1         0.0960
      10    H7      19.039672   19.941350   21.443387 H          1 MOL1         0.0960
      11    C4      20.248133   18.861311   22.894000 C.3        1 MOL1        -0.1409
      12    H8      21.214088   18.338279   22.922067 H          1 MOL1         0.0960
      13    H9      19.475584   18.116624   23.127831 H          1 MOL1         0.0960
      14    C5      20.238151   19.985267   23.957785 C.3        1 MOL1        -0.1409
      15    H10     20.981329   20.747337   23.685077 H          1 MOL1         0.0960
      16    H11     19.261561   20.489156   23.955840 H          1 MOL1         0.0960
      17    C6      20.552062   19.474647   25.383726 C.3        1 MOL1        -0.1450
      18    H12     20.614542   20.334245   26.064268 H          1 MOL1         0.0960
      19    H13     21.538858   18.992855   25.394335 H          1 MOL1         0.0960
      20    C7      19.490068   18.491610   25.911141 C.3        1 MOL1         0.0172
      21    H14     18.507712   18.971487   25.901799 H          1 MOL1         0.0934
      22    H15     19.449005   17.609833   25.266581 H          1 MOL1         0.0934
      23    N1      19.767556   18.021375   27.324367 N.4        1 MOL1        -0.5956
      24    H16     19.049504   17.368386   27.656644 H          1 MOL1         0.3624
      25    H17     19.791473   18.801732   27.988966 H          1 MOL1         0.3624
      26    H18     20.668066   17.536428   27.395898 H          1 MOL1         0.3624
@<TRIPOS>BOND
    1     1     2    1
    2     1     3    1
    3     1     4    1
    4     1     5    1
    5     5     6    1
    6     5     7    1
    7     5     8    1
    8     8     9    1
    9     8    10    1
   10     8    11    1
   11    11    12    1
   12    11    13    1
   13    11    14    1
   14    14    15    1
   15    14    16    1
   16    14    17    1
   17    17    18    1
   18    17    19    1
   19    17    20    1
   20    20    21    1
   21    20    22    1
   22    20    23    1
   23    23    24    1
   24    23    25    1
   25    23    26    1
@<TRIPOS>SUBSTRUCTURE
       1 MOL1            1 RESIDUE      1      MOL     
@<SCITEGIC>MOL_PROPERTY
VM2 Rank
SciTegic.value.IntegerValue
4

@<SCITEGIC>MOL_PROPERTY
Conf_Id
SciTegic.value.IntegerValue
891

@<SCITEGIC>MOL_PROPERTY
Probability
SciTegic.value.DoubleValue
3.38

@<SCITEGIC>MOL_PROPERTY
Sum Probability
SciTegic.value.DoubleValue
20.51

@<SCITEGIC>MOL_PROPERTY
Delta G
SciTegic.value.DoubleValue
0.470

@<SCITEGIC>MOL_PROPERTY
G
SciTegic.value.DoubleValue
48.731

@<SCITEGIC>MOL_PROPERTY
E
SciTegic.value.DoubleValue
16.280

@<SCITEGIC>MOL_PROPERTY
-TS
SciTegic.value.DoubleValue
32.451

@<SCITEGIC>MOL_PROPERTY
U+W
SciTegic.value.DoubleValue
-5.182

@<SCITEGIC>MOL_PROPERTY
U
SciTegic.value.DoubleValue
48.002

@<SCITEGIC>MOL_PROPERTY
W
SciTegic.value.DoubleValue
-53.183

@<SCITEGIC>MOL_PROPERTY
W(PB)
SciTegic.value.DoubleValue
-55.533

@<SCITEGIC>MOL_PROPERTY
W(SA)
SciTegic.value.DoubleValue
2.350

@<SCITEGIC>MOL_PROPERTY
Valence
SciTegic.value.DoubleValue
2.459

@<SCITEGIC>MOL_PROPERTY
Coulomb
SciTegic.value.DoubleValue
44.900

@<SCITEGIC>MOL_PROPERTY
VdW
SciTegic.value.DoubleValue
0.643

@<SCITEGIC>MOL_PROPERTY
VdW6
SciTegic.value.DoubleValue
-6.362

@<SCITEGIC>MOL_PROPERTY
VdW12
SciTegic.value.DoubleValue
7.005

@<SCITEGIC>MOL_PROPERTY
Bond
SciTegic.value.DoubleValue
0.151

@<SCITEGIC>MOL_PROPERTY
Angle
SciTegic.value.DoubleValue
0.519

@<SCITEGIC>MOL_PROPERTY
Pdih
SciTegic.value.DoubleValue
1.789

@<SCITEGIC>MOL_PROPERTY
Idih
SciTegic.value.DoubleValue
0.000

@<SCITEGIC>MOL_PROPERTY
Tether
SciTegic.value.DoubleValue
0.000

@<TRIPOS>MOLECULE
guest-s14_vm2.mol2 : vm2 ligand conformer 5
          26          25           1
SMALL
USER_CHARGES
 
@<TRIPOS>ATOM
       1    C1      20.370997   19.251035   19.009889 C.3        1 MOL1        -0.2400
       2    H1      21.145233   18.946213   18.293866 H          1 MOL1         0.0971
       3    H2      19.415144   18.829488   18.672417 H          1 MOL1         0.0971
       4    H3      20.292928   20.345572   18.976152 H          1 MOL1         0.0971
       5    C2      20.721241   18.763399   20.431737 C.3        1 MOL1        -0.1385
       6    H4      21.696926   19.173706   20.727718 H          1 MOL1         0.0960
       7    H5      20.825816   17.669341   20.426457 H          1 MOL1         0.0960
       8    C3      19.646426   19.179667   21.460262 C.3        1 MOL1        -0.1409
       9    H6      19.543995   20.273724   21.460493 H          1 MOL1         0.0960
      10    H7      18.672783   18.769425   21.158350 H          1 MOL1         0.0960
      11    C4      19.993486   18.693034   22.885433 C.3        1 MOL1        -0.1409
      12    H8      20.970048   19.101588   23.177797 H          1 MOL1         0.0960
      13    H9      20.093031   17.598727   22.884349 H          1 MOL1         0.0960
      14    C5      18.915620   19.112691   23.913592 C.3        1 MOL1        -0.1409
      15    H10     18.836331   20.208396   23.941558 H          1 MOL1         0.0960
      16    H11     17.936511   18.738824   23.583437 H          1 MOL1         0.0960
      17    C6      19.195142   18.579444   25.338407 C.3        1 MOL1        -0.1450
      18    H12     19.249918   17.482819   25.317953 H          1 MOL1         0.0960
      19    H13     18.349360   18.839923   25.988600 H          1 MOL1         0.0960
      20    C7      20.490425   19.151497   25.944510 C.3        1 MOL1         0.0172
      21    H14     21.346518   18.861386   25.330009 H          1 MOL1         0.0934
      22    H15     20.435658   20.243254   25.965930 H          1 MOL1         0.0934
      23    N1      20.747663   18.668232   27.357171 N.4        1 MOL1        -0.5956
      24    H16     19.990574   18.933601   27.995620 H          1 MOL1         0.3624
      25    H17     21.613902   19.060301   27.742283 H          1 MOL1         0.3624
      26    H18     20.836234   17.647756   27.401814 H          1 MOL1         0.3624
@<TRIPOS>BOND
    1     1     2    1
    2     1     3    1
    3     1     4    1
    4     1     5    1
    5     5     6    1
    6     5     7    1
    7     5     8    1
    8     8     9    1
    9     8    10    1
   10     8    11    1
   11    11    12    1
   12    11    13    1
   13    11    14    1
   14    14    15    1
   15    14    16    1
   16    14    17    1
   17    17    18    1
   18    17    19    1
   19    17    20    1
   20    20    21    1
   21    20    22    1
   22    20    23    1
   23    23    24    1
   24    23    25    1
   25    23    26    1
@<TRIPOS>SUBSTRUCTURE
       1 MOL1            1 RESIDUE      1      MOL     
@<SCITEGIC>MOL_PROPERTY
VM2 Rank
SciTegic.value.IntegerValue
5

@<SCITEGIC>MOL_PROPERTY
Conf_Id
SciTegic.value.IntegerValue
779

@<SCITEGIC>MOL_PROPERTY
Probability
SciTegic.value.DoubleValue
3.36

@<SCITEGIC>MOL_PROPERTY
Sum Probability
SciTegic.value.DoubleValue
23.87

@<SCITEGIC>MOL_PROPERTY
Delta G
SciTegic.value.DoubleValue
0.473

@<SCITEGIC>MOL_PROPERTY
G
SciTegic.value.DoubleValue
48.734

@<SCITEGIC>MOL_PROPERTY
E
SciTegic.value.DoubleValue
16.284

@<SCITEGIC>MOL_PROPERTY
-TS
SciTegic.value.DoubleValue
32.451

@<SCITEGIC>MOL_PROPERTY
U+W
SciTegic.value.DoubleValue
-5.178

@<SCITEGIC>MOL_PROPERTY
U
SciTegic.value.DoubleValue
48.002

@<SCITEGIC>MOL_PROPERTY
W
SciTegic.value.DoubleValue
-53.180

@<SCITEGIC>MOL_PROPERTY
W(PB)
SciTegic.value.DoubleValue
-55.521

@<SCITEGIC>MOL_PROPERTY
W(SA)
SciTegic.value.DoubleValue
2.341

@<SCITEGIC>MOL_PROPERTY
Valence
SciTegic.value.DoubleValue
2.459

@<SCITEGIC>MOL_PROPERTY
Coulomb
SciTegic.value.DoubleValue
44.900

@<SCITEGIC>MOL_PROPERTY
VdW
SciTegic.value.DoubleValue
0.643

@<SCITEGIC>MOL_PROPERTY
VdW6
SciTegic.value.DoubleValue
-6.362

@<SCITEGIC>MOL_PROPERTY
VdW12
SciTegic.value.DoubleValue
7.005

@<SCITEGIC>MOL_PROPERTY
Bond
SciTegic.value.DoubleValue
0.151

@<SCITEGIC>MOL_PROPERTY
Angle
SciTegic.value.DoubleValue
0.519

@<SCITEGIC>MOL_PROPERTY
Pdih
SciTegic.value.DoubleValue
1.789

@<SCITEGIC>MOL_PROPERTY
Idih
SciTegic.value.DoubleValue
0.000

@<SCITEGIC>MOL_PROPERTY
Tether
SciTegic.value.DoubleValue
0.000

@<TRIPOS>MOLECULE
guest-s14_vm2.mol2 : vm2 ligand conformer 6
          26          25           1
SMALL
USER_CHARGES
 
@<TRIPOS>ATOM
       1    C1      19.444936   18.162101   19.524220 C.3        1 MOL1        -0.2400
       2    H1      18.448974   18.623590   19.513610 H          1 MOL1         0.0971
       3    H2      19.660489   17.805618   18.508644 H          1 MOL1         0.0971
       4    H3      19.410651   17.284198   20.181144 H          1 MOL1         0.0971
       5    C2      20.520925   19.172652   19.982271 C.3        1 MOL1        -0.1385
       6    H4      20.601241   19.969531   19.229720 H          1 MOL1         0.0960
       7    H5      21.502327   18.679041   20.013105 H          1 MOL1         0.0960
       8    C3      20.215320   19.816415   21.356274 C.3        1 MOL1        -0.1409
       9    H6      20.964896   20.596055   21.550251 H          1 MOL1         0.0960
      10    H7      19.242926   20.326262   21.314215 H          1 MOL1         0.0960
      11    C4      20.224119   18.804472   22.527107 C.3        1 MOL1        -0.1409
      12    H8      21.178400   18.259917   22.533912 H          1 MOL1         0.0960
      13    H9      19.431683   18.058504   22.382172 H          1 MOL1         0.0960
      14    C5      20.018468   19.503013   23.890370 C.3        1 MOL1        -0.1409
      15    H10     20.811713   20.247548   24.045849 H          1 MOL1         0.0960
      16    H11     19.065687   20.050667   23.882334 H          1 MOL1         0.0960
      17    C6      20.022991   18.495001   25.060689 C.3        1 MOL1        -0.1450
      18    H12     20.975702   17.948884   25.074804 H          1 MOL1         0.0960
      19    H13     19.227695   17.752293   24.912400 H          1 MOL1         0.0960
      20    C7      19.817931   19.200960   26.412576 C.3        1 MOL1         0.0172
      21    H14     20.616965   19.930047   26.572116 H          1 MOL1         0.0934
      22    H15     18.862598   19.732752   26.409045 H          1 MOL1         0.0934
      23    N1      19.816309   18.244387   27.587492 N.4        1 MOL1        -0.5956
      24    H16     19.068147   17.547397   27.511934 H          1 MOL1         0.3624
      25    H17     19.678387   18.734922   28.477893 H          1 MOL1         0.3624
      26    H18     20.700557   17.731004   27.663649 H          1 MOL1         0.3624
@<TRIPOS>BOND
    1     1     2    1
    2     1     3    1
    3     1     4    1
    4     1     5    1
    5     5     6    1
    6     5     7    1
    7     5     8    1
    8     8     9    1
    9     8    10    1
   10     8    11    1
   11    11    12    1
   12    11    13    1
   13    11    14    1
   14    14    15    1
   15    14    16    1
   16    14    17    1
   17    17    18    1
   18    17    19    1
   19    17    20    1
   20    20    21    1
   21    20    22    1
   22    20    23    1
   23    23    24    1
   24    23    25    1
   25    23    26    1
@<TRIPOS>SUBSTRUCTURE
       1 MOL1            1 RESIDUE      1      MOL     
@<SCITEGIC>MOL_PROPERTY
VM2 Rank
SciTegic.value.IntegerValue
6

@<SCITEGIC>MOL_PROPERTY
Conf_Id
SciTegic.value.IntegerValue
1030

@<SCITEGIC>MOL_PROPERTY
Probability
SciTegic.value.DoubleValue
2.75

@<SCITEGIC>MOL_PROPERTY
Sum Probability
SciTegic.value.DoubleValue
26.62

@<SCITEGIC>MOL_PROPERTY
Delta G
SciTegic.value.DoubleValue
0.593

@<SCITEGIC>MOL_PROPERTY
G
SciTegic.value.DoubleValue
48.855

@<SCITEGIC>MOL_PROPERTY
E
SciTegic.value.DoubleValue
16.392

@<SCITEGIC>MOL_PROPERTY
-TS
SciTegic.value.DoubleValue
32.463

@<SCITEGIC>MOL_PROPERTY
U+W
SciTegic.value.DoubleValue
-5.070

@<SCITEGIC>MOL_PROPERTY
U
SciTegic.value.DoubleValue
47.845

@<SCITEGIC>MOL_PROPERTY
W
SciTegic.value.DoubleValue
-52.915

@<SCITEGIC>MOL_PROPERTY
W(PB)
SciTegic.value.DoubleValue
-55.277

@<SCITEGIC>MOL_PROPERTY
W(SA)
SciTegic.value.DoubleValue
2.362

@<SCITEGIC>MOL_PROPERTY
Valence
SciTegic.value.DoubleValue
2.661

@<SCITEGIC>MOL_PROPERTY
Coulomb
SciTegic.value.DoubleValue
44.462

@<SCITEGIC>MOL_PROPERTY
VdW
SciTegic.value.DoubleValue
0.723

@<SCITEGIC>MOL_PROPERTY
VdW6
SciTegic.value.DoubleValue
-6.379

@<SCITEGIC>MOL_PROPERTY
VdW12
SciTegic.value.DoubleValue
7.102

@<SCITEGIC>MOL_PROPERTY
Bond
SciTegic.value.DoubleValue
0.164

@<SCITEGIC>MOL_PROPERTY
Angle
SciTegic.value.DoubleValue
0.634

@<SCITEGIC>MOL_PROPERTY
Pdih
SciTegic.value.DoubleValue
1.863

@<SCITEGIC>MOL_PROPERTY
Idih
SciTegic.value.DoubleValue
0.000

@<SCITEGIC>MOL_PROPERTY
Tether
SciTegic.value.DoubleValue
0.000

@<TRIPOS>MOLECULE
guest-s14_vm2.mol2 : vm2 ligand conformer 7
          26          25           1
SMALL
USER_CHARGES
 
@<TRIPOS>ATOM
       1    C1      21.108128   19.258355   19.579799 C.3        1 MOL1        -0.2400
       2    H1      21.897210   18.923173   20.264229 H          1 MOL1         0.0971
       3    H2      21.398007   18.950863   18.566707 H          1 MOL1         0.0971
       4    H3      21.076393   20.355420   19.601404 H          1 MOL1         0.0971
       5    C2      19.735805   18.655085   19.956059 C.3        1 MOL1        -0.1385
       6    H4      19.801838   17.558091   19.956341 H          1 MOL1         0.0960
       7    H5      19.007481   18.918914   19.176483 H          1 MOL1         0.0960
       8    C3      19.200816   19.147673   21.322387 C.3        1 MOL1        -0.1409
       9    H6      19.116638   20.243129   21.309921 H          1 MOL1         0.0960
      10    H7      18.181246   18.760903   21.457351 H          1 MOL1         0.0960
      11    C4      20.072303   18.704558   22.522019 C.3        1 MOL1        -0.1409
      12    H8      21.075453   19.142627   22.437068 H          1 MOL1         0.0960
      13    H9      20.197270   17.613145   22.501087 H          1 MOL1         0.0960
      14    C5      19.448101   19.127034   23.871321 C.3        1 MOL1        -0.1409
      15    H10     19.319701   20.218325   23.890868 H          1 MOL1         0.0960
      16    H11     18.445481   18.687286   23.966807 H          1 MOL1         0.0960
      17    C6      20.317706   18.689439   25.070507 C.3        1 MOL1        -0.1450
      18    H12     21.319055   19.131741   24.982359 H          1 MOL1         0.0960
      19    H13     20.444615   17.598655   25.056864 H          1 MOL1         0.0960
      20    C7      19.686808   19.114353   26.408205 C.3        1 MOL1         0.0172
      21    H14     19.573603   20.201572   26.432992 H          1 MOL1         0.0934
      22    H15     18.695972   18.662908   26.507803 H          1 MOL1         0.0934
      23    N1      20.511333   18.702503   27.610702 N.4        1 MOL1        -0.5956
      24    H16     20.632206   17.685596   27.661144 H          1 MOL1         0.3624
      25    H17     20.073407   18.995015   28.491109 H          1 MOL1         0.3624
      26    H18     21.448778   19.117333   27.591619 H          1 MOL1         0.3624
@<TRIPOS>BOND
    1     1     2    1
    2     1     3    1
    3     1     4    1
    4     1     5    1
    5     5     6    1
    6     5     7    1
    7     5     8    1
    8     8     9    1
    9     8    10    1
   10     8    11    1
   11    11    12    1
   12    11    13    1
   13    11    14    1
   14    14    15    1
   15    14    16    1
   16    14    17    1
   17    17    18    1
   18    17    19    1
   19    17    20    1
   20    20    21    1
   21    20    22    1
   22    20    23    1
   23    23    24    1
   24    23    25    1
   25    23    26    1
@<TRIPOS>SUBSTRUCTURE
       1 MOL1            1 RESIDUE      1      MOL     
@<SCITEGIC>MOL_PROPERTY
VM2 Rank
SciTegic.value.IntegerValue
7

@<SCITEGIC>MOL_PROPERTY
Conf_Id
SciTegic.value.IntegerValue
1031

@<SCITEGIC>MOL_PROPERTY
Probability
SciTegic.value.DoubleValue
2.58

@<SCITEGIC>MOL_PROPERTY
Sum Probability
SciTegic.value.DoubleValue
29.20

@<SCITEGIC>MOL_PROPERTY
Delta G
SciTegic.value.DoubleValue
0.632

@<SCITEGIC>MOL_PROPERTY
G
SciTegic.value.DoubleValue
48.894

@<SCITEGIC>MOL_PROPERTY
E
SciTegic.value.DoubleValue
16.431

@<SCITEGIC>MOL_PROPERTY
-TS
SciTegic.value.DoubleValue
32.463

@<SCITEGIC>MOL_PROPERTY
U+W
SciTegic.value.DoubleValue
-5.031

@<SCITEGIC>MOL_PROPERTY
U
SciTegic.value.DoubleValue
47.845

@<SCITEGIC>MOL_PROPERTY
W
SciTegic.value.DoubleValue
-52.876

@<SCITEGIC>MOL_PROPERTY
W(PB)
SciTegic.value.DoubleValue
-55.228

@<SCITEGIC>MOL_PROPERTY
W(SA)
SciTegic.value.DoubleValue
2.352

@<SCITEGIC>MOL_PROPERTY
Valence
SciTegic.value.DoubleValue
2.661

@<SCITEGIC>MOL_PROPERTY
Coulomb
SciTegic.value.DoubleValue
44.462

@<SCITEGIC>MOL_PROPERTY
VdW
SciTegic.value.DoubleValue
0.723

@<SCITEGIC>MOL_PROPERTY
VdW6
SciTegic.value.DoubleValue
-6.379

@<SCITEGIC>MOL_PROPERTY
VdW12
SciTegic.value.DoubleValue
7.102

@<SCITEGIC>MOL_PROPERTY
Bond
SciTegic.value.DoubleValue
0.164

@<SCITEGIC>MOL_PROPERTY
Angle
SciTegic.value.DoubleValue
0.634

@<SCITEGIC>MOL_PROPERTY
Pdih
SciTegic.value.DoubleValue
1.863

@<SCITEGIC>MOL_PROPERTY
Idih
SciTegic.value.DoubleValue
0.000

@<SCITEGIC>MOL_PROPERTY
Tether
SciTegic.value.DoubleValue
0.000

@<TRIPOS>MOLECULE
guest-s14_vm2.mol2 : vm2 ligand conformer 8
          26          25           1
SMALL
USER_CHARGES
 
@<TRIPOS>ATOM
       1    C1      20.186304   19.782777   19.189239 C.3        1 MOL1        -0.2400
       2    H1      19.186567   20.230293   19.115098 H          1 MOL1         0.0971
       3    H2      20.911292   20.511755   18.804502 H          1 MOL1         0.0971
       4    H3      20.215814   18.901405   18.535374 H          1 MOL1         0.0971
       5    C2      20.516996   19.403313   20.648328 C.3        1 MOL1        -0.1385
       6    H4      20.518025   20.314281   21.261339 H          1 MOL1         0.0960
       7    H5      21.532663   18.986215   20.694798 H          1 MOL1         0.0960
       8    C3      19.505078   18.379056   21.214219 C.3        1 MOL1        -0.1409
       9    H6      18.497189   18.816560   21.216683 H          1 MOL1         0.0960
      10    H7      19.462323   17.511212   20.541633 H          1 MOL1         0.0960
      11    C4      19.857798   17.879570   22.636900 C.3        1 MOL1        -0.1409
      12    H8      20.859575   17.428201   22.630060 H          1 MOL1         0.0960
      13    H9      19.159130   17.075137   22.905492 H          1 MOL1         0.0960
      14    C5      19.790386   18.986735   23.716313 C.3        1 MOL1        -0.1409
      15    H10     20.537128   19.763439   23.505072 H          1 MOL1         0.0960
      16    H11     18.805376   19.472792   23.683499 H          1 MOL1         0.0960
      17    C6      20.038334   18.422430   25.132633 C.3        1 MOL1        -0.1450
      18    H12     21.022564   17.936608   25.169842 H          1 MOL1         0.0960
      19    H13     19.289578   17.652135   25.360866 H          1 MOL1         0.0960
      20    C7      19.973636   19.529794   26.199240 C.3        1 MOL1         0.0172
      21    H14     20.728747   20.291185   25.985790 H          1 MOL1         0.0934
      22    H15     18.989418   20.005494   26.176815 H          1 MOL1         0.0934
      23    N1      20.212467   19.015325   27.604128 N.4        1 MOL1        -0.5956
      24    H16     21.135385   18.579046   27.699691 H          1 MOL1         0.3624
      25    H17     19.516994   18.313290   27.877472 H          1 MOL1         0.3624
      26    H18     20.165069   19.768656   28.298893 H          1 MOL1         0.3624
@<TRIPOS>BOND
    1     1     2    1
    2     1     3    1
    3     1     4    1
    4     1     5    1
    5     5     6    1
    6     5     7    1
    7     5     8    1
    8     8     9    1
    9     8    10    1
   10     8    11    1
   11    11    12    1
   12    11    13    1
   13    11    14    1
   14    14    15    1
   15    14    16    1
   16    14    17    1
   17    17    18    1
   18    17    19    1
   19    17    20    1
   20    20    21    1
   21    20    22    1
   22    20    23    1
   23    23    24    1
   24    23    25    1
   25    23    26    1
@<TRIPOS>SUBSTRUCTURE
       1 MOL1            1 RESIDUE      1      MOL     
@<SCITEGIC>MOL_PROPERTY
VM2 Rank
SciTegic.value.IntegerValue
8

@<SCITEGIC>MOL_PROPERTY
Conf_Id
SciTegic.value.IntegerValue
1191

@<SCITEGIC>MOL_PROPERTY
Probability
SciTegic.value.DoubleValue
2.45

@<SCITEGIC>MOL_PROPERTY
Sum Probability
SciTegic.value.DoubleValue
31.65

@<SCITEGIC>MOL_PROPERTY
Delta G
SciTegic.value.DoubleValue
0.662

@<SCITEGIC>MOL_PROPERTY
G
SciTegic.value.DoubleValue
48.924

@<SCITEGIC>MOL_PROPERTY
E
SciTegic.value.DoubleValue
16.473

@<SCITEGIC>MOL_PROPERTY
-TS
SciTegic.value.DoubleValue
32.451

@<SCITEGIC>MOL_PROPERTY
U+W
SciTegic.value.DoubleValue
-4.989

@<SCITEGIC>MOL_PROPERTY
U
SciTegic.value.DoubleValue
48.035

@<SCITEGIC>MOL_PROPERTY
W
SciTegic.value.DoubleValue
-53.024

@<SCITEGIC>MOL_PROPERTY
W(PB)
SciTegic.value.DoubleValue
-55.379

@<SCITEGIC>MOL_PROPERTY
W(SA)
SciTegic.value.DoubleValue
2.355

@<SCITEGIC>MOL_PROPERTY
Valence
SciTegic.value.DoubleValue
2.701

@<SCITEGIC>MOL_PROPERTY
Coulomb
SciTegic.value.DoubleValue
44.622

@<SCITEGIC>MOL_PROPERTY
VdW
SciTegic.value.DoubleValue
0.712

@<SCITEGIC>MOL_PROPERTY
VdW6
SciTegic.value.DoubleValue
-6.418

@<SCITEGIC>MOL_PROPERTY
VdW12
SciTegic.value.DoubleValue
7.130

@<SCITEGIC>MOL_PROPERTY
Bond
SciTegic.value.DoubleValue
0.168

@<SCITEGIC>MOL_PROPERTY
Angle
SciTegic.value.DoubleValue
0.659

@<SCITEGIC>MOL_PROPERTY
Pdih
SciTegic.value.DoubleValue
1.875

@<SCITEGIC>MOL_PROPERTY
Idih
SciTegic.value.DoubleValue
0.000

@<SCITEGIC>MOL_PROPERTY
Tether
SciTegic.value.DoubleValue
0.000

@<TRIPOS>MOLECULE
guest-s14_vm2.mol2 : vm2 ligand conformer 9
          26          25           1
SMALL
USER_CHARGES
 
@<TRIPOS>ATOM
       1    C1      20.845159   19.869588   19.433553 C.3        1 MOL1        -0.2400
       2    H1      21.810187   20.173362   19.859776 H          1 MOL1         0.0971
       3    H2      21.019453   19.552467   18.397165 H          1 MOL1         0.0971
       4    H3      20.189120   20.749553   19.410885 H          1 MOL1         0.0971
       5    C2      20.211375   18.726173   20.254001 C.3        1 MOL1        -0.1385
       6    H4      20.874251   17.849822   20.230783 H          1 MOL1         0.0960
       7    H5      19.266050   18.421196   19.783622 H          1 MOL1         0.0960
       8    C3      19.954467   19.146694   21.718120 C.3        1 MOL1        -0.1409
       9    H6      20.904215   19.457215   22.172756 H          1 MOL1         0.0960
      10    H7      19.290021   20.021576   21.736092 H          1 MOL1         0.0960
      11    C4      19.322527   17.999408   22.542589 C.3        1 MOL1        -0.1409
      12    H8      20.009132   17.142058   22.571905 H          1 MOL1         0.0960
      13    H9      18.414879   17.649913   22.031280 H          1 MOL1         0.0960
      14    C5      18.943531   18.410053   23.986801 C.3        1 MOL1        -0.1409
      15    H10     18.243303   19.256455   23.957391 H          1 MOL1         0.0960
      16    H11     18.400354   17.577038   24.454522 H          1 MOL1         0.0960
      17    C6      20.162218   18.771849   24.867986 C.3        1 MOL1        -0.1450
      18    H12     20.672423   19.655182   24.463860 H          1 MOL1         0.0960
      19    H13     20.885402   17.945551   24.856323 H          1 MOL1         0.0960
      20    C7      19.738088   19.059182   26.319063 C.3        1 MOL1         0.0172
      21    H14     19.030052   19.892138   26.337496 H          1 MOL1         0.0934
      22    H15     19.244589   18.178795   26.739583 H          1 MOL1         0.0934
      23    N1      20.903637   19.416054   27.218887 N.4        1 MOL1        -0.5956
      24    H16     20.598998   19.603043   28.180490 H          1 MOL1         0.3624
      25    H17     21.395202   20.254838   26.893313 H          1 MOL1         0.3624
      26    H18     21.594897   18.660337   27.266693 H          1 MOL1         0.3624
@<TRIPOS>BOND
    1     1     2    1
    2     1     3    1
    3     1     4    1
    4     1     5    1
    5     5     6    1
    6     5     7    1
    7     5     8    1
    8     8     9    1
    9     8    10    1
   10     8    11    1
   11    11    12    1
   12    11    13    1
   13    11    14    1
   14    14    15    1
   15    14    16    1
   16    14    17    1
   17    17    18    1
   18    17    19    1
   19    17    20    1
   20    20    21    1
   21    20    22    1
   22    20    23    1
   23    23    24    1
   24    23    25    1
   25    23    26    1
@<TRIPOS>SUBSTRUCTURE
       1 MOL1            1 RESIDUE      1      MOL     
@<SCITEGIC>MOL_PROPERTY
VM2 Rank
SciTegic.value.IntegerValue
9

@<SCITEGIC>MOL_PROPERTY
Conf_Id
SciTegic.value.IntegerValue
611

@<SCITEGIC>MOL_PROPERTY
Probability
SciTegic.value.DoubleValue
2.44

@<SCITEGIC>MOL_PROPERTY
Sum Probability
SciTegic.value.DoubleValue
34.09

@<SCITEGIC>MOL_PROPERTY
Delta G
SciTegic.value.DoubleValue
0.664

@<SCITEGIC>MOL_PROPERTY
G
SciTegic.value.DoubleValue
48.926

@<SCITEGIC>MOL_PROPERTY
E
SciTegic.value.DoubleValue
16.473

@<SCITEGIC>MOL_PROPERTY
-TS
SciTegic.value.DoubleValue
32.453

@<SCITEGIC>MOL_PROPERTY
U+W
SciTegic.value.DoubleValue
-4.989

@<SCITEGIC>MOL_PROPERTY
U
SciTegic.value.DoubleValue
48.214

@<SCITEGIC>MOL_PROPERTY
W
SciTegic.value.DoubleValue
-53.203

@<SCITEGIC>MOL_PROPERTY
W(PB)
SciTegic.value.DoubleValue
-55.543

@<SCITEGIC>MOL_PROPERTY
W(SA)
SciTegic.value.DoubleValue
2.340

@<SCITEGIC>MOL_PROPERTY
Valence
SciTegic.value.DoubleValue
2.697

@<SCITEGIC>MOL_PROPERTY
Coulomb
SciTegic.value.DoubleValue
44.818

@<SCITEGIC>MOL_PROPERTY
VdW
SciTegic.value.DoubleValue
0.698

@<SCITEGIC>MOL_PROPERTY
VdW6
SciTegic.value.DoubleValue
-6.437

@<SCITEGIC>MOL_PROPERTY
VdW12
SciTegic.value.DoubleValue
7.136

@<SCITEGIC>MOL_PROPERTY
Bond
SciTegic.value.DoubleValue
0.168

@<SCITEGIC>MOL_PROPERTY
Angle
SciTegic.value.DoubleValue
0.657

@<SCITEGIC>MOL_PROPERTY
Pdih
SciTegic.value.DoubleValue
1.873

@<SCITEGIC>MOL_PROPERTY
Idih
SciTegic.value.DoubleValue
0.000

@<SCITEGIC>MOL_PROPERTY
Tether
SciTegic.value.DoubleValue
0.000

@<TRIPOS>MOLECULE
guest-s14_vm2.mol2 : vm2 ligand conformer 10
          26          25           1
SMALL
USER_CHARGES
 
@<TRIPOS>ATOM
       1    C1      19.343859   19.227165   19.161107 C.3        1 MOL1        -0.2400
       2    H1      20.172436   18.873255   18.533862 H          1 MOL1         0.0971
       3    H2      18.407712   18.860072   18.720756 H          1 MOL1         0.0971
       4    H3      19.328260   20.324125   19.120137 H          1 MOL1         0.0971
       5    C2      19.494882   18.728780   20.614067 C.3        1 MOL1        -0.1385
       6    H4      19.477581   17.630020   20.625744 H          1 MOL1         0.0960
       7    H5      18.629037   19.067555   21.198180 H          1 MOL1         0.0960
       8    C3      20.806405   19.237612   21.257737 C.3        1 MOL1        -0.1409
       9    H6      21.651779   18.955821   20.614863 H          1 MOL1         0.0960
      10    H7      20.799719   20.335752   21.293750 H          1 MOL1         0.0960
      11    C4      21.060618   18.673092   22.677107 C.3        1 MOL1        -0.1409
      12    H8      22.061226   18.989763   23.002518 H          1 MOL1         0.0960
      13    H9      21.082505   17.575235   22.637488 H          1 MOL1         0.0960
      14    C5      20.019753   19.138019   23.723976 C.3        1 MOL1        -0.1409
      15    H10     19.961296   20.235356   23.722141 H          1 MOL1         0.0960
      16    H11     19.023073   18.764524   23.454449 H          1 MOL1         0.0960
      17    C6      20.374908   18.644440   25.143879 C.3        1 MOL1        -0.1450
      18    H12     21.365780   19.021635   25.430199 H          1 MOL1         0.0960
      19    H13     20.433068   17.547767   25.150172 H          1 MOL1         0.0960
      20    C7      19.333549   19.107585   26.177880 C.3        1 MOL1         0.0172
      21    H14     19.284039   20.199808   26.186697 H          1 MOL1         0.0934
      22    H15     18.347660   18.720640   25.906285 H          1 MOL1         0.0934
      23    N1      19.647026   18.642307   27.585246 N.4        1 MOL1        -0.5956
      24    H16     18.941403   18.961484   28.258058 H          1 MOL1         0.3624
      25    H17     20.552227   18.995980   27.912016 H          1 MOL1         0.3624
      26    H18     19.680937   17.619683   27.651107 H          1 MOL1         0.3624
@<TRIPOS>BOND
    1     1     2    1
    2     1     3    1
    3     1     4    1
    4     1     5    1
    5     5     6    1
    6     5     7    1
    7     5     8    1
    8     8     9    1
    9     8    10    1
   10     8    11    1
   11    11    12    1
   12    11    13    1
   13    11    14    1
   14    14    15    1
   15    14    16    1
   16    14    17    1
   17    17    18    1
   18    17    19    1
   19    17    20    1
   20    20    21    1
   21    20    22    1
   22    20    23    1
   23    23    24    1
   24    23    25    1
   25    23    26    1
@<TRIPOS>SUBSTRUCTURE
       1 MOL1            1 RESIDUE      1      MOL     
@<SCITEGIC>MOL_PROPERTY
VM2 Rank
SciTegic.value.IntegerValue
10

@<SCITEGIC>MOL_PROPERTY
Conf_Id
SciTegic.value.IntegerValue
613

@<SCITEGIC>MOL_PROPERTY
Probability
SciTegic.value.DoubleValue
2.42

@<SCITEGIC>MOL_PROPERTY
Sum Probability
SciTegic.value.DoubleValue
36.51

@<SCITEGIC>MOL_PROPERTY
Delta G
SciTegic.value.DoubleValue
0.669

@<SCITEGIC>MOL_PROPERTY
G
SciTegic.value.DoubleValue
48.931

@<SCITEGIC>MOL_PROPERTY
E
SciTegic.value.DoubleValue
16.480

@<SCITEGIC>MOL_PROPERTY
-TS
SciTegic.value.DoubleValue
32.451

@<SCITEGIC>MOL_PROPERTY
U+W
SciTegic.value.DoubleValue
-4.982

@<SCITEGIC>MOL_PROPERTY
U
SciTegic.value.DoubleValue
48.035

@<SCITEGIC>MOL_PROPERTY
W
SciTegic.value.DoubleValue
-53.017

@<SCITEGIC>MOL_PROPERTY
W(PB)
SciTegic.value.DoubleValue
-55.374

@<SCITEGIC>MOL_PROPERTY
W(SA)
SciTegic.value.DoubleValue
2.357

@<SCITEGIC>MOL_PROPERTY
Valence
SciTegic.value.DoubleValue
2.701

@<SCITEGIC>MOL_PROPERTY
Coulomb
SciTegic.value.DoubleValue
44.622

@<SCITEGIC>MOL_PROPERTY
VdW
SciTegic.value.DoubleValue
0.712

@<SCITEGIC>MOL_PROPERTY
VdW6
SciTegic.value.DoubleValue
-6.418

@<SCITEGIC>MOL_PROPERTY
VdW12
SciTegic.value.DoubleValue
7.129

@<SCITEGIC>MOL_PROPERTY
Bond
SciTegic.value.DoubleValue
0.168

@<SCITEGIC>MOL_PROPERTY
Angle
SciTegic.value.DoubleValue
0.659

@<SCITEGIC>MOL_PROPERTY
Pdih
SciTegic.value.DoubleValue
1.875

@<SCITEGIC>MOL_PROPERTY
Idih
SciTegic.value.DoubleValue
0.000

@<SCITEGIC>MOL_PROPERTY
Tether
SciTegic.value.DoubleValue
0.000

@<TRIPOS>MOLECULE
guest-s14_vm2.mol2 : vm2 ligand conformer 11
          26          25           1
SMALL
USER_CHARGES
 
@<TRIPOS>ATOM
       1    C1      18.994002   18.648686   19.371788 C.3        1 MOL1        -0.2400
       2    H1      18.316453   17.868758   19.743091 H          1 MOL1         0.0971
       3    H2      18.444156   19.598712   19.352826 H          1 MOL1         0.0971
       4    H3      19.265039   18.395569   18.338581 H          1 MOL1         0.0971
       5    C2      20.254974   18.755112   20.255442 C.3        1 MOL1        -0.1385
       6    H4      20.927948   19.517817   19.839156 H          1 MOL1         0.0960
       7    H5      20.800937   17.801637   20.228155 H          1 MOL1         0.0960
       8    C3      19.901532   19.111688   21.716407 C.3        1 MOL1        -0.1409
       9    H6      19.357872   20.066241   21.738582 H          1 MOL1         0.0960
      10    H7      19.222378   18.347645   22.116566 H          1 MOL1         0.0960
      11    C4      21.165142   19.214617   22.604143 C.3        1 MOL1        -0.1409
      12    H8      21.866277   19.926267   22.146572 H          1 MOL1         0.0960
      13    H9      21.681717   18.245118   22.627722 H          1 MOL1         0.0960
      14    C5      20.869635   19.680233   24.051175 C.3        1 MOL1        -0.1409
      15    H10     21.826303   19.836257   24.569020 H          1 MOL1         0.0960
      16    H11     20.368653   20.658027   24.028470 H          1 MOL1         0.0960
      17    C6      20.017651   18.676519   24.863125 C.3        1 MOL1        -0.1450
      18    H12     20.493040   17.686819   24.843132 H          1 MOL1         0.0960
      19    H13     19.024756   18.568692   24.408773 H          1 MOL1         0.0960
      20    C7      19.852810   19.134761   26.322890 C.3        1 MOL1         0.0172
      21    H14     20.835668   19.227830   26.792772 H          1 MOL1         0.0934
      22    H15     19.365106   20.112998   26.348735 H          1 MOL1         0.0934
      23    N1      19.025253   18.177385   27.156031 N.4        1 MOL1        -0.5956
      24    H16     18.076922   18.066819   26.782348 H          1 MOL1         0.3624
      25    H17     18.928473   18.501312   28.124615 H          1 MOL1         0.3624
      26    H18     19.445490   17.242964   27.194671 H          1 MOL1         0.3624
@<TRIPOS>BOND
    1     1     2    1
    2     1     3    1
    3     1     4    1
    4     1     5    1
    5     5     6    1
    6     5     7    1
    7     5     8    1
    8     8     9    1
    9     8    10    1
   10     8    11    1
   11    11    12    1
   12    11    13    1
   13    11    14    1
   14    14    15    1
   15    14    16    1
   16    14    17    1
   17    17    18    1
   18    17    19    1
   19    17    20    1
   20    20    21    1
   21    20    22    1
   22    20    23    1
   23    23    24    1
   24    23    25    1
   25    23    26    1
@<TRIPOS>SUBSTRUCTURE
       1 MOL1            1 RESIDUE      1      MOL     
@<SCITEGIC>MOL_PROPERTY
VM2 Rank
SciTegic.value.IntegerValue
11

@<SCITEGIC>MOL_PROPERTY
Conf_Id
SciTegic.value.IntegerValue
201

@<SCITEGIC>MOL_PROPERTY
Probability
SciTegic.value.DoubleValue
2.36

@<SCITEGIC>MOL_PROPERTY
Sum Probability
SciTegic.value.DoubleValue
38.87

@<SCITEGIC>MOL_PROPERTY
Delta G
SciTegic.value.DoubleValue
0.685

@<SCITEGIC>MOL_PROPERTY
G
SciTegic.value.DoubleValue
48.946

@<SCITEGIC>MOL_PROPERTY
E
SciTegic.value.DoubleValue
16.493

@<SCITEGIC>MOL_PROPERTY
-TS
SciTegic.value.DoubleValue
32.453

@<SCITEGIC>MOL_PROPERTY
U+W
SciTegic.value.DoubleValue
-4.969

@<SCITEGIC>MOL_PROPERTY
U
SciTegic.value.DoubleValue
48.214

@<SCITEGIC>MOL_PROPERTY
W
SciTegic.value.DoubleValue
-53.183

@<SCITEGIC>MOL_PROPERTY
W(PB)
SciTegic.value.DoubleValue
-55.531

@<SCITEGIC>MOL_PROPERTY
W(SA)
SciTegic.value.DoubleValue
2.348

@<SCITEGIC>MOL_PROPERTY
Valence
SciTegic.value.DoubleValue
2.697

@<SCITEGIC>MOL_PROPERTY
Coulomb
SciTegic.value.DoubleValue
44.819

@<SCITEGIC>MOL_PROPERTY
VdW
SciTegic.value.DoubleValue
0.698

@<SCITEGIC>MOL_PROPERTY
VdW6
SciTegic.value.DoubleValue
-6.437

@<SCITEGIC>MOL_PROPERTY
VdW12
SciTegic.value.DoubleValue
7.136

@<SCITEGIC>MOL_PROPERTY
Bond
SciTegic.value.DoubleValue
0.168

@<SCITEGIC>MOL_PROPERTY
Angle
SciTegic.value.DoubleValue
0.657

@<SCITEGIC>MOL_PROPERTY
Pdih
SciTegic.value.DoubleValue
1.872

@<SCITEGIC>MOL_PROPERTY
Idih
SciTegic.value.DoubleValue
0.000

@<SCITEGIC>MOL_PROPERTY
Tether
SciTegic.value.DoubleValue
0.000

@<TRIPOS>MOLECULE
guest-s14_vm2.mol2 : vm2 ligand conformer 12
          26          25           1
SMALL
USER_CHARGES
 
@<TRIPOS>ATOM
       1    C1      20.561497   19.387975   19.212562 C.3        1 MOL1        -0.2400
       2    H1      20.977542   20.397226   19.328991 H          1 MOL1         0.0971
       3    H2      21.150081   18.867207   18.446134 H          1 MOL1         0.0971
       4    H3      19.532900   19.482927   18.840787 H          1 MOL1         0.0971
       5    C2      20.599611   18.614768   20.547778 C.3        1 MOL1        -0.1385
       6    H4      21.642719   18.506458   20.876573 H          1 MOL1         0.0960
       7    H5      20.209175   17.599244   20.392238 H          1 MOL1         0.0960
       8    C3      19.777958   19.327039   21.644984 C.3        1 MOL1        -0.1409
       9    H6      20.170476   20.342275   21.795356 H          1 MOL1         0.0960
      10    H7      18.736939   19.435201   21.310318 H          1 MOL1         0.0960
      11    C4      19.813499   18.555521   22.983532 C.3        1 MOL1        -0.1409
      12    H8      20.856850   18.444706   23.307627 H          1 MOL1         0.0960
      13    H9      19.417439   17.541782   22.832419 H          1 MOL1         0.0960
      14    C5      18.991403   19.272409   24.081282 C.3        1 MOL1        -0.1409
      15    H10     19.398533   20.277728   24.253541 H          1 MOL1         0.0960
      16    H11     17.962674   19.417468   23.723470 H          1 MOL1         0.0960
      17    C6      18.942017   18.487681   25.416292 C.3        1 MOL1        -0.1450
      18    H12     18.453324   17.518714   25.248525 H          1 MOL1         0.0960
      19    H13     18.309714   19.029181   26.132380 H          1 MOL1         0.0960
      20    C7      20.325443   18.240317   26.051466 C.3        1 MOL1         0.0172
      21    H14     20.204186   17.660976   26.970796 H          1 MOL1         0.0934
      22    H15     20.949341   17.661279   25.365823 H          1 MOL1         0.0934
      23    N1      21.069572   19.513290   26.403104 N.4        1 MOL1        -0.5956
      24    H16     21.981276   19.316445   26.829991 H          1 MOL1         0.3624
      25    H17     20.544601   20.088931   27.069408 H          1 MOL1         0.3624
      26    H18     21.242880   20.090255   25.574205 H          1 MOL1         0.3624
@<TRIPOS>BOND
    1     1     2    1
    2     1     3    1
    3     1     4    1
    4     1     5    1
    5     5     6    1
    6     5     7    1
    7     5     8    1
    8     8     9    1
    9     8    10    1
   10     8    11    1
   11    11    12    1
   12    11    13    1
   13    11    14    1
   14    14    15    1
   15    14    16    1
   16    14    17    1
   17    17    18    1
   18    17    19    1
   19    17    20    1
   20    20    21    1
   21    20    22    1
   22    20    23    1
   23    23    24    1
   24    23    25    1
   25    23    26    1
@<TRIPOS>SUBSTRUCTURE
       1 MOL1            1 RESIDUE      1      MOL     
@<SCITEGIC>MOL_PROPERTY
VM2 Rank
SciTegic.value.IntegerValue
12

@<SCITEGIC>MOL_PROPERTY
Conf_Id
SciTegic.value.IntegerValue
1290

@<SCITEGIC>MOL_PROPERTY
Probability
SciTegic.value.DoubleValue
1.82

@<SCITEGIC>MOL_PROPERTY
Sum Probability
SciTegic.value.DoubleValue
40.68

@<SCITEGIC>MOL_PROPERTY
Delta G
SciTegic.value.DoubleValue
0.840

@<SCITEGIC>MOL_PROPERTY
G
SciTegic.value.DoubleValue
49.101

@<SCITEGIC>MOL_PROPERTY
E
SciTegic.value.DoubleValue
16.464

@<SCITEGIC>MOL_PROPERTY
-TS
SciTegic.value.DoubleValue
32.637

@<SCITEGIC>MOL_PROPERTY
U+W
SciTegic.value.DoubleValue
-4.998

@<SCITEGIC>MOL_PROPERTY
U
SciTegic.value.DoubleValue
48.668

@<SCITEGIC>MOL_PROPERTY
W
SciTegic.value.DoubleValue
-53.666

@<SCITEGIC>MOL_PROPERTY
W(PB)
SciTegic.value.DoubleValue
-55.975

@<SCITEGIC>MOL_PROPERTY
W(SA)
SciTegic.value.DoubleValue
2.309

@<SCITEGIC>MOL_PROPERTY
Valence
SciTegic.value.DoubleValue
2.543

@<SCITEGIC>MOL_PROPERTY
Coulomb
SciTegic.value.DoubleValue
45.478

@<SCITEGIC>MOL_PROPERTY
VdW
SciTegic.value.DoubleValue
0.646

@<SCITEGIC>MOL_PROPERTY
VdW6
SciTegic.value.DoubleValue
-7.095

@<SCITEGIC>MOL_PROPERTY
VdW12
SciTegic.value.DoubleValue
7.742

@<SCITEGIC>MOL_PROPERTY
Bond
SciTegic.value.DoubleValue
0.176

@<SCITEGIC>MOL_PROPERTY
Angle
SciTegic.value.DoubleValue
0.630

@<SCITEGIC>MOL_PROPERTY
Pdih
SciTegic.value.DoubleValue
1.738

@<SCITEGIC>MOL_PROPERTY
Idih
SciTegic.value.DoubleValue
0.000

@<SCITEGIC>MOL_PROPERTY
Tether
SciTegic.value.DoubleValue
0.000

@<TRIPOS>MOLECULE
guest-s14_vm2.mol2 : vm2 ligand conformer 13
          26          25           1
SMALL
USER_CHARGES
 
@<TRIPOS>ATOM
       1    C1      19.464726   18.189429   19.603796 C.3        1 MOL1        -0.2400
       2    H1      18.388995   18.372379   19.723594 H          1 MOL1         0.0971
       3    H2      19.654514   17.986894   18.541771 H          1 MOL1         0.0971
       4    H3      19.724158   17.282379   20.163617 H          1 MOL1         0.0971
       5    C2      20.291652   19.405851   20.078437 C.3        1 MOL1        -0.1385
       6    H4      20.086912   20.254992   19.411476 H          1 MOL1         0.0960
       7    H5      21.363680   19.186498   19.976473 H          1 MOL1         0.0960
       8    C3      19.980492   19.831369   21.533707 C.3        1 MOL1        -0.1409
       9    H6      20.524295   20.761649   21.748608 H          1 MOL1         0.0960
      10    H7      18.911859   20.069806   21.625442 H          1 MOL1         0.0960
      11    C4      20.369648   18.764258   22.584821 C.3        1 MOL1        -0.1409
      12    H8      21.425760   18.490338   22.455194 H          1 MOL1         0.0960
      13    H9      19.781003   17.851179   22.426023 H          1 MOL1         0.0960
      14    C5      20.140120   19.269535   24.027257 C.3        1 MOL1        -0.1409
      15    H10     20.733481   20.178844   24.196693 H          1 MOL1         0.0960
      16    H11     19.085194   19.549827   24.148097 H          1 MOL1         0.0960
      17    C6      20.524559   18.201162   25.078050 C.3        1 MOL1        -0.1450
      18    H12     21.569482   17.900055   24.924932 H          1 MOL1         0.0960
      19    H13     19.914714   17.298675   24.938082 H          1 MOL1         0.0960
      20    C7      20.370161   18.706897   26.525366 C.3        1 MOL1         0.0172
      21    H14     20.734421   17.942674   27.217351 H          1 MOL1         0.0934
      22    H15     20.971724   19.608940   26.666256 H          1 MOL1         0.0934
      23    N1      18.939641   19.030498   26.909566 N.4        1 MOL1        -0.5956
      24    H16     18.869847   19.351689   27.881318 H          1 MOL1         0.3624
      25    H17     18.327092   18.213352   26.819688 H          1 MOL1         0.3624
      26    H18     18.546339   19.770640   26.320125 H          1 MOL1         0.3624
@<TRIPOS>BOND
    1     1     2    1
    2     1     3    1
    3     1     4    1
    4     1     5    1
    5     5     6    1
    6     5     7    1
    7     5     8    1
    8     8     9    1
    9     8    10    1
   10     8    11    1
   11    11    12    1
   12    11    13    1
   13    11    14    1
   14    14    15    1
   15    14    16    1
   16    14    17    1
   17    17    18    1
   18    17    19    1
   19    17    20    1
   20    20    21    1
   21    20    22    1
   22    20    23    1
   23    23    24    1
   24    23    25    1
   25    23    26    1
@<TRIPOS>SUBSTRUCTURE
       1 MOL1            1 RESIDUE      1      MOL     
@<SCITEGIC>MOL_PROPERTY
VM2 Rank
SciTegic.value.IntegerValue
13

@<SCITEGIC>MOL_PROPERTY
Conf_Id
SciTegic.value.IntegerValue
1362

@<SCITEGIC>MOL_PROPERTY
Probability
SciTegic.value.DoubleValue
1.76

@<SCITEGIC>MOL_PROPERTY
Sum Probability
SciTegic.value.DoubleValue
42.45

@<SCITEGIC>MOL_PROPERTY
Delta G
SciTegic.value.DoubleValue
0.858

@<SCITEGIC>MOL_PROPERTY
G
SciTegic.value.DoubleValue
49.120

@<SCITEGIC>MOL_PROPERTY
E
SciTegic.value.DoubleValue
16.554

@<SCITEGIC>MOL_PROPERTY
-TS
SciTegic.value.DoubleValue
32.566

@<SCITEGIC>MOL_PROPERTY
U+W
SciTegic.value.DoubleValue
-4.908

@<SCITEGIC>MOL_PROPERTY
U
SciTegic.value.DoubleValue
48.485

@<SCITEGIC>MOL_PROPERTY
W
SciTegic.value.DoubleValue
-53.394

@<SCITEGIC>MOL_PROPERTY
W(PB)
SciTegic.value.DoubleValue
-55.718

@<SCITEGIC>MOL_PROPERTY
W(SA)
SciTegic.value.DoubleValue
2.324

@<SCITEGIC>MOL_PROPERTY
Valence
SciTegic.value.DoubleValue
2.763

@<SCITEGIC>MOL_PROPERTY
Coulomb
SciTegic.value.DoubleValue
44.894

@<SCITEGIC>MOL_PROPERTY
VdW
SciTegic.value.DoubleValue
0.828

@<SCITEGIC>MOL_PROPERTY
VdW6
SciTegic.value.DoubleValue
-6.904

@<SCITEGIC>MOL_PROPERTY
VdW12
SciTegic.value.DoubleValue
7.733

@<SCITEGIC>MOL_PROPERTY
Bond
SciTegic.value.DoubleValue
0.184

@<SCITEGIC>MOL_PROPERTY
Angle
SciTegic.value.DoubleValue
0.674

@<SCITEGIC>MOL_PROPERTY
Pdih
SciTegic.value.DoubleValue
1.904

@<SCITEGIC>MOL_PROPERTY
Idih
SciTegic.value.DoubleValue
0.000

@<SCITEGIC>MOL_PROPERTY
Tether
SciTegic.value.DoubleValue
0.000

@<TRIPOS>MOLECULE
guest-s14_vm2.mol2 : vm2 ligand conformer 14
          26          25           1
SMALL
USER_CHARGES
 
@<TRIPOS>ATOM
       1    C1      21.071023   19.250540   19.657432 C.3        1 MOL1        -0.2400
       2    H1      21.777151   18.638611   20.232211 H          1 MOL1         0.0971
       3    H2      21.232250   19.029071   18.594468 H          1 MOL1         0.0971
       4    H3      21.318250   20.307437   19.821344 H          1 MOL1         0.0971
       5    C2      19.607388   18.953863   20.055590 C.3        1 MOL1        -0.1385
       6    H4      19.394213   17.885537   19.910701 H          1 MOL1         0.0960
       7    H5      18.938069   19.496119   19.373121 H          1 MOL1         0.0960
       8    C3      19.270461   19.362347   21.510002 C.3        1 MOL1        -0.1409
       9    H6      19.465347   20.435340   21.643968 H          1 MOL1         0.0960
      10    H7      18.192653   19.221544   21.670718 H          1 MOL1         0.0960
      11    C4      20.049973   18.553056   22.574151 C.3        1 MOL1        -0.1409
      12    H8      21.126921   18.740077   22.471004 H          1 MOL1         0.0960
      13    H9      19.894332   17.478791   22.404034 H          1 MOL1         0.0960
      14    C5      19.608380   18.918258   24.009500 C.3        1 MOL1        -0.1409
      15    H10     19.758047   19.994217   24.170587 H          1 MOL1         0.0960
      16    H11     18.532567   18.725033   24.123170 H          1 MOL1         0.0960
      17    C6      20.390958   18.112861   25.073588 C.3        1 MOL1        -0.1450
      18    H12     21.465574   18.323076   24.989942 H          1 MOL1         0.0960
      19    H13     20.265903   17.038909   24.881332 H          1 MOL1         0.0960
      20    C7      19.919256   18.408965   26.510304 C.3        1 MOL1         0.0172
      21    H14     18.848284   18.205983   26.595325 H          1 MOL1         0.0934
      22    H15     20.447035   17.752780   27.207753 H          1 MOL1         0.0934
      23    N1      20.163561   19.839110   26.950434 N.4        1 MOL1        -0.5956
      24    H16     21.158422   20.083984   26.914187 H          1 MOL1         0.3624
      25    H17     19.850535   19.999573   27.914073 H          1 MOL1         0.3624
      26    H18     19.664466   20.509369   26.357480 H          1 MOL1         0.3624
@<TRIPOS>BOND
    1     1     2    1
    2     1     3    1
    3     1     4    1
    4     1     5    1
    5     5     6    1
    6     5     7    1
    7     5     8    1
    8     8     9    1
    9     8    10    1
   10     8    11    1
   11    11    12    1
   12    11    13    1
   13    11    14    1
   14    14    15    1
   15    14    16    1
   16    14    17    1
   17    17    18    1
   18    17    19    1
   19    17    20    1
   20    20    21    1
   21    20    22    1
   22    20    23    1
   23    23    24    1
   24    23    25    1
   25    23    26    1
@<TRIPOS>SUBSTRUCTURE
       1 MOL1            1 RESIDUE      1      MOL     
@<SCITEGIC>MOL_PROPERTY
VM2 Rank
SciTegic.value.IntegerValue
14

@<SCITEGIC>MOL_PROPERTY
Conf_Id
SciTegic.value.IntegerValue
1271

@<SCITEGIC>MOL_PROPERTY
Probability
SciTegic.value.DoubleValue
1.74

@<SCITEGIC>MOL_PROPERTY
Sum Probability
SciTegic.value.DoubleValue
44.18

@<SCITEGIC>MOL_PROPERTY
Delta G
SciTegic.value.DoubleValue
0.867

@<SCITEGIC>MOL_PROPERTY
G
SciTegic.value.DoubleValue
49.128

@<SCITEGIC>MOL_PROPERTY
E
SciTegic.value.DoubleValue
16.562

@<SCITEGIC>MOL_PROPERTY
-TS
SciTegic.value.DoubleValue
32.566

@<SCITEGIC>MOL_PROPERTY
U+W
SciTegic.value.DoubleValue
-4.899

@<SCITEGIC>MOL_PROPERTY
U
SciTegic.value.DoubleValue
48.486

@<SCITEGIC>MOL_PROPERTY
W
SciTegic.value.DoubleValue
-53.385

@<SCITEGIC>MOL_PROPERTY
W(PB)
SciTegic.value.DoubleValue
-55.716

@<SCITEGIC>MOL_PROPERTY
W(SA)
SciTegic.value.DoubleValue
2.331

@<SCITEGIC>MOL_PROPERTY
Valence
SciTegic.value.DoubleValue
2.763

@<SCITEGIC>MOL_PROPERTY
Coulomb
SciTegic.value.DoubleValue
44.894

@<SCITEGIC>MOL_PROPERTY
VdW
SciTegic.value.DoubleValue
0.829

@<SCITEGIC>MOL_PROPERTY
VdW6
SciTegic.value.DoubleValue
-6.904

@<SCITEGIC>MOL_PROPERTY
VdW12
SciTegic.value.DoubleValue
7.733

@<SCITEGIC>MOL_PROPERTY
Bond
SciTegic.value.DoubleValue
0.184

@<SCITEGIC>MOL_PROPERTY
Angle
SciTegic.value.DoubleValue
0.674

@<SCITEGIC>MOL_PROPERTY
Pdih
SciTegic.value.DoubleValue
1.904

@<SCITEGIC>MOL_PROPERTY
Idih
SciTegic.value.DoubleValue
0.000

@<SCITEGIC>MOL_PROPERTY
Tether
SciTegic.value.DoubleValue
0.000

@<TRIPOS>MOLECULE
guest-s14_vm2.mol2 : vm2 ligand conformer 15
          26          25           1
SMALL
USER_CHARGES
 
@<TRIPOS>ATOM
       1    C1      19.558336   18.726351   19.178920 C.3        1 MOL1        -0.2400
       2    H1      18.462542   18.738666   19.244635 H          1 MOL1         0.0971
       3    H2      19.892528   19.719926   18.852784 H          1 MOL1         0.0971
       4    H3      19.841249   18.003956   18.402293 H          1 MOL1         0.0971
       5    C2      20.191126   18.345384   20.534112 C.3        1 MOL1        -0.1385
       6    H4      21.284445   18.308211   20.428321 H          1 MOL1         0.0960
       7    H5      19.865465   17.334554   20.817095 H          1 MOL1         0.0960
       8    C3      19.808513   19.347227   21.645969 C.3        1 MOL1        -0.1409
       9    H6      20.133678   20.356278   21.356994 H          1 MOL1         0.0960
      10    H7      18.714887   19.382460   21.746593 H          1 MOL1         0.0960
      11    C4      20.440755   18.969231   23.004498 C.3        1 MOL1        -0.1409
      12    H8      21.534428   18.937794   22.903217 H          1 MOL1         0.0960
      13    H9      20.117554   17.957343   23.282928 H          1 MOL1         0.0960
      14    C5      20.054172   19.973322   24.116782 C.3        1 MOL1        -0.1409
      15    H10     20.341557   20.986351   23.802878 H          1 MOL1         0.0960
      16    H11     18.962913   19.990464   24.239073 H          1 MOL1         0.0960
      17    C6      20.732341   19.668378   25.476041 C.3        1 MOL1        -0.1450
      18    H12     20.450053   20.440688   26.203821 H          1 MOL1         0.0960
      19    H13     21.822032   19.740346   25.360890 H          1 MOL1         0.0960
      20    C7      20.386759   18.280727   26.053531 C.3        1 MOL1         0.0172
      21    H14     20.705381   17.500409   25.357669 H          1 MOL1         0.0934
      22    H15     20.923844   18.135495   26.994781 H          1 MOL1         0.0934
      23    N1      18.908999   18.088380   26.331147 N.4        1 MOL1        -0.5956
      24    H16     18.711947   17.160310   26.721069 H          1 MOL1         0.3624
      25    H17     18.349457   18.182065   25.477841 H          1 MOL1         0.3624
      26    H18     18.555532   18.777107   27.003185 H          1 MOL1         0.3624
@<TRIPOS>BOND
    1     1     2    1
    2     1     3    1
    3     1     4    1
    4     1     5    1
    5     5     6    1
    6     5     7    1
    7     5     8    1
    8     8     9    1
    9     8    10    1
   10     8    11    1
   11    11    12    1
   12    11    13    1
   13    11    14    1
   14    14    15    1
   15    14    16    1
   16    14    17    1
   17    17    18    1
   18    17    19    1
   19    17    20    1
   20    20    21    1
   21    20    22    1
   22    20    23    1
   23    23    24    1
   24    23    25    1
   25    23    26    1
@<TRIPOS>SUBSTRUCTURE
       1 MOL1            1 RESIDUE      1      MOL     
@<SCITEGIC>MOL_PROPERTY
VM2 Rank
SciTegic.value.IntegerValue
15

@<SCITEGIC>MOL_PROPERTY
Conf_Id
SciTegic.value.IntegerValue
176

@<SCITEGIC>MOL_PROPERTY
Probability
SciTegic.value.DoubleValue
1.71

@<SCITEGIC>MOL_PROPERTY
Sum Probability
SciTegic.value.DoubleValue
45.90

@<SCITEGIC>MOL_PROPERTY
Delta G
SciTegic.value.DoubleValue
0.875

@<SCITEGIC>MOL_PROPERTY
G
SciTegic.value.DoubleValue
49.136

@<SCITEGIC>MOL_PROPERTY
E
SciTegic.value.DoubleValue
16.499

@<SCITEGIC>MOL_PROPERTY
-TS
SciTegic.value.DoubleValue
32.637

@<SCITEGIC>MOL_PROPERTY
U+W
SciTegic.value.DoubleValue
-4.963

@<SCITEGIC>MOL_PROPERTY
U
SciTegic.value.DoubleValue
48.668

@<SCITEGIC>MOL_PROPERTY
W
SciTegic.value.DoubleValue
-53.630

@<SCITEGIC>MOL_PROPERTY
W(PB)
SciTegic.value.DoubleValue
-55.948

@<SCITEGIC>MOL_PROPERTY
W(SA)
SciTegic.value.DoubleValue
2.318

@<SCITEGIC>MOL_PROPERTY
Valence
SciTegic.value.DoubleValue
2.543

@<SCITEGIC>MOL_PROPERTY
Coulomb
SciTegic.value.DoubleValue
45.478

@<SCITEGIC>MOL_PROPERTY
VdW
SciTegic.value.DoubleValue
0.646

@<SCITEGIC>MOL_PROPERTY
VdW6
SciTegic.value.DoubleValue
-7.095

@<SCITEGIC>MOL_PROPERTY
VdW12
SciTegic.value.DoubleValue
7.741

@<SCITEGIC>MOL_PROPERTY
Bond
SciTegic.value.DoubleValue
0.176

@<SCITEGIC>MOL_PROPERTY
Angle
SciTegic.value.DoubleValue
0.630

@<SCITEGIC>MOL_PROPERTY
Pdih
SciTegic.value.DoubleValue
1.738

@<SCITEGIC>MOL_PROPERTY
Idih
SciTegic.value.DoubleValue
0.000

@<SCITEGIC>MOL_PROPERTY
Tether
SciTegic.value.DoubleValue
0.000

@<TRIPOS>MOLECULE
guest-s14_vm2.mol2 : vm2 ligand conformer 16
          26          25           1
SMALL
USER_CHARGES
 
@<TRIPOS>ATOM
       1    C1      19.322488   18.918653   19.484147 C.3        1 MOL1        -0.2400
       2    H1      18.616345   18.265694   20.011828 H          1 MOL1         0.0971
       3    H2      18.916894   19.938706   19.487336 H          1 MOL1         0.0971
       4    H3      19.369071   18.579250   18.441281 H          1 MOL1         0.0971
       5    C2      20.726182   18.876619   20.129635 C.3        1 MOL1        -0.1385
       6    H4      21.423144   19.445515   19.498448 H          1 MOL1         0.0960
       7    H5      21.096742   17.842068   20.141457 H          1 MOL1         0.0960
       8    C3      20.762666   19.462132   21.561959 C.3        1 MOL1        -0.1409
       9    H6      21.808235   19.495682   21.898059 H          1 MOL1         0.0960
      10    H7      20.410988   20.502889   21.541753 H          1 MOL1         0.0960
      11    C4      19.929652   18.649236   22.581918 C.3        1 MOL1        -0.1409
      12    H8      20.249501   17.598269   22.562018 H          1 MOL1         0.0960
      13    H9      18.869730   18.666024   22.296134 H          1 MOL1         0.0960
      14    C5      20.076467   19.206214   24.016093 C.3        1 MOL1        -0.1409
      15    H10     21.135999   19.189175   24.304334 H          1 MOL1         0.0960
      16    H11     19.757260   20.257598   24.035314 H          1 MOL1         0.0960
      17    C6      19.241351   18.395601   25.035351 C.3        1 MOL1        -0.1450
      18    H12     19.573079   17.348783   25.046127 H          1 MOL1         0.0960
      19    H13     18.189628   18.387739   24.719462 H          1 MOL1         0.0960
      20    C7      19.317435   18.974065   26.461509 C.3        1 MOL1         0.0172
      21    H14     18.993645   20.018334   26.452956 H          1 MOL1         0.0934
      22    H15     18.644544   18.413846   27.116439 H          1 MOL1         0.0934
      23    N1      20.704759   18.916478   27.070388 N.4        1 MOL1        -0.5956
      24    H16     20.718475   19.296802   28.023015 H          1 MOL1         0.3624
      25    H17     21.382531   19.455408   26.522564 H          1 MOL1         0.3624
      26    H18     21.056189   17.955054   27.126850 H          1 MOL1         0.3624
@<TRIPOS>BOND
    1     1     2    1
    2     1     3    1
    3     1     4    1
    4     1     5    1
    5     5     6    1
    6     5     7    1
    7     5     8    1
    8     8     9    1
    9     8    10    1
   10     8    11    1
   11    11    12    1
   12    11    13    1
   13    11    14    1
   14    14    15    1
   15    14    16    1
   16    14    17    1
   17    17    18    1
   18    17    19    1
   19    17    20    1
   20    20    21    1
   21    20    22    1
   22    20    23    1
   23    23    24    1
   24    23    25    1
   25    23    26    1
@<TRIPOS>SUBSTRUCTURE
       1 MOL1            1 RESIDUE      1      MOL     
@<SCITEGIC>MOL_PROPERTY
VM2 Rank
SciTegic.value.IntegerValue
16

@<SCITEGIC>MOL_PROPERTY
Conf_Id
SciTegic.value.IntegerValue
946

@<SCITEGIC>MOL_PROPERTY
Probability
SciTegic.value.DoubleValue
1.68

@<SCITEGIC>MOL_PROPERTY
Sum Probability
SciTegic.value.DoubleValue
47.58

@<SCITEGIC>MOL_PROPERTY
Delta G
SciTegic.value.DoubleValue
0.886

@<SCITEGIC>MOL_PROPERTY
G
SciTegic.value.DoubleValue
49.148

@<SCITEGIC>MOL_PROPERTY
E
SciTegic.value.DoubleValue
16.582

@<SCITEGIC>MOL_PROPERTY
-TS
SciTegic.value.DoubleValue
32.565

@<SCITEGIC>MOL_PROPERTY
U+W
SciTegic.value.DoubleValue
-4.879

@<SCITEGIC>MOL_PROPERTY
U
SciTegic.value.DoubleValue
48.461

@<SCITEGIC>MOL_PROPERTY
W
SciTegic.value.DoubleValue
-53.341

@<SCITEGIC>MOL_PROPERTY
W(PB)
SciTegic.value.DoubleValue
-55.653

@<SCITEGIC>MOL_PROPERTY
W(SA)
SciTegic.value.DoubleValue
2.313

@<SCITEGIC>MOL_PROPERTY
Valence
SciTegic.value.DoubleValue
2.761

@<SCITEGIC>MOL_PROPERTY
Coulomb
SciTegic.value.DoubleValue
44.868

@<SCITEGIC>MOL_PROPERTY
VdW
SciTegic.value.DoubleValue
0.832

@<SCITEGIC>MOL_PROPERTY
VdW6
SciTegic.value.DoubleValue
-6.903

@<SCITEGIC>MOL_PROPERTY
VdW12
SciTegic.value.DoubleValue
7.735

@<SCITEGIC>MOL_PROPERTY
Bond
SciTegic.value.DoubleValue
0.184

@<SCITEGIC>MOL_PROPERTY
Angle
SciTegic.value.DoubleValue
0.674

@<SCITEGIC>MOL_PROPERTY
Pdih
SciTegic.value.DoubleValue
1.903

@<SCITEGIC>MOL_PROPERTY
Idih
SciTegic.value.DoubleValue
0.000

@<SCITEGIC>MOL_PROPERTY
Tether
SciTegic.value.DoubleValue
0.000

@<TRIPOS>MOLECULE
guest-s14_vm2.mol2 : vm2 ligand conformer 17
          26          25           1
SMALL
USER_CHARGES
 
@<TRIPOS>ATOM
       1    C1      19.477273   19.880365   19.423555 C.3        1 MOL1        -0.2400
       2    H1      19.738207   19.751285   18.365115 H          1 MOL1         0.0971
       3    H2      18.387720   19.782893   19.516339 H          1 MOL1         0.0971
       4    H3      19.755556   20.900948   19.717144 H          1 MOL1         0.0971
       5    C2      20.204009   18.834455   20.295413 C.3        1 MOL1        -0.1385
       6    H4      21.289618   18.934728   20.156379 H          1 MOL1         0.0960
       7    H5      19.932712   17.825166   19.955364 H          1 MOL1         0.0960
       8    C3      19.853298   18.993418   21.791464 C.3        1 MOL1        -0.1409
       9    H6      20.120584   20.007612   22.115774 H          1 MOL1         0.0960
      10    H7      18.767647   18.890491   21.925522 H          1 MOL1         0.0960
      11    C4      20.584718   17.947630   22.667020 C.3        1 MOL1        -0.1409
      12    H8      21.671371   18.082141   22.575361 H          1 MOL1         0.0960
      13    H9      20.365155   16.942220   22.281883 H          1 MOL1         0.0960
      14    C5      20.179535   17.999719   24.160577 C.3        1 MOL1        -0.1409
      15    H10     19.096368   17.840860   24.247830 H          1 MOL1         0.0960
      16    H11     20.658993   17.158931   24.680951 H          1 MOL1         0.0960
      17    C6      20.581367   19.320616   24.863153 C.3        1 MOL1        -0.1450
      18    H12     20.033155   20.167562   24.431641 H          1 MOL1         0.0960
      19    H13     21.648369   19.514680   24.691039 H          1 MOL1         0.0960
      20    C7      20.331726   19.281409   26.383067 C.3        1 MOL1         0.0172
      21    H14     20.876270   18.442106   26.824018 H          1 MOL1         0.0934
      22    H15     20.703245   20.204651   26.836001 H          1 MOL1         0.0934
      23    N1      18.869074   19.141388   26.756752 N.4        1 MOL1        -0.5956
      24    H16     18.735469   19.129235   27.773762 H          1 MOL1         0.3624
      25    H17     18.465481   18.273554   26.390778 H          1 MOL1         0.3624
      26    H18     18.306495   19.915961   26.390033 H          1 MOL1         0.3624
@<TRIPOS>BOND
    1     1     2    1
    2     1     3    1
    3     1     4    1
    4     1     5    1
    5     5     6    1
    6     5     7    1
    7     5     8    1
    8     8     9    1
    9     8    10    1
   10     8    11    1
   11    11    12    1
   12    11    13    1
   13    11    14    1
   14    14    15    1
   15    14    16    1
   16    14    17    1
   17    17    18    1
   18    17    19    1
   19    17    20    1
   20    20    21    1
   21    20    22    1
   22    20    23    1
   23    23    24    1
   24    23    25    1
   25    23    26    1
@<TRIPOS>SUBSTRUCTURE
       1 MOL1            1 RESIDUE      1      MOL     
@<SCITEGIC>MOL_PROPERTY
VM2 Rank
SciTegic.value.IntegerValue
17

@<SCITEGIC>MOL_PROPERTY
Conf_Id
SciTegic.value.IntegerValue
778

@<SCITEGIC>MOL_PROPERTY
Probability
SciTegic.value.DoubleValue
1.63

@<SCITEGIC>MOL_PROPERTY
Sum Probability
SciTegic.value.DoubleValue
49.21

@<SCITEGIC>MOL_PROPERTY
Delta G
SciTegic.value.DoubleValue
0.906

@<SCITEGIC>MOL_PROPERTY
G
SciTegic.value.DoubleValue
49.167

@<SCITEGIC>MOL_PROPERTY
E
SciTegic.value.DoubleValue
16.600

@<SCITEGIC>MOL_PROPERTY
-TS
SciTegic.value.DoubleValue
32.567

@<SCITEGIC>MOL_PROPERTY
U+W
SciTegic.value.DoubleValue
-4.862

@<SCITEGIC>MOL_PROPERTY
U
SciTegic.value.DoubleValue
48.698

@<SCITEGIC>MOL_PROPERTY
W
SciTegic.value.DoubleValue
-53.559

@<SCITEGIC>MOL_PROPERTY
W(PB)
SciTegic.value.DoubleValue
-55.857

@<SCITEGIC>MOL_PROPERTY
W(SA)
SciTegic.value.DoubleValue
2.298

@<SCITEGIC>MOL_PROPERTY
Valence
SciTegic.value.DoubleValue
2.792

@<SCITEGIC>MOL_PROPERTY
Coulomb
SciTegic.value.DoubleValue
45.121

@<SCITEGIC>MOL_PROPERTY
VdW
SciTegic.value.DoubleValue
0.785

@<SCITEGIC>MOL_PROPERTY
VdW6
SciTegic.value.DoubleValue
-6.973

@<SCITEGIC>MOL_PROPERTY
VdW12
SciTegic.value.DoubleValue
7.758

@<SCITEGIC>MOL_PROPERTY
Bond
SciTegic.value.DoubleValue
0.189

@<SCITEGIC>MOL_PROPERTY
Angle
SciTegic.value.DoubleValue
0.672

@<SCITEGIC>MOL_PROPERTY
Pdih
SciTegic.value.DoubleValue
1.931

@<SCITEGIC>MOL_PROPERTY
Idih
SciTegic.value.DoubleValue
0.000

@<SCITEGIC>MOL_PROPERTY
Tether
SciTegic.value.DoubleValue
0.000

@<TRIPOS>MOLECULE
guest-s14_vm2.mol2 : vm2 ligand conformer 18
          26          25           1
SMALL
USER_CHARGES
 
@<TRIPOS>ATOM
       1    C1      19.520425   19.909007   19.425097 C.3        1 MOL1        -0.2400
       2    H1      20.032179   20.869185   19.571387 H          1 MOL1         0.0971
       3    H2      19.586077   19.651003   18.360125 H          1 MOL1         0.0971
       4    H3      18.459909   20.045304   19.674004 H          1 MOL1         0.0971
       5    C2      20.156692   18.803293   20.293871 C.3        1 MOL1        -0.1385
       6    H4      21.206262   18.666467   19.997931 H          1 MOL1         0.0960
       7    H5      19.646080   17.849254   20.101477 H          1 MOL1         0.0960
       8    C3      20.078347   19.142072   21.799035 C.3        1 MOL1        -0.1409
       9    H6      20.591617   20.095276   21.986546 H          1 MOL1         0.0960
      10    H7      19.026567   19.284966   22.079303 H          1 MOL1         0.0960
      11    C4      20.712539   18.032007   22.671273 C.3        1 MOL1        -0.1409
      12    H8      21.740399   17.850593   22.327791 H          1 MOL1         0.0960
      13    H9      20.167889   17.088983   22.525076 H          1 MOL1         0.0960
      14    C5      20.753826   18.378935   24.179757 C.3        1 MOL1        -0.1409
      15    H10     21.314871   17.592010   24.702798 H          1 MOL1         0.0960
      16    H11     21.319543   19.309416   24.322130 H          1 MOL1         0.0960
      17    C6      19.349919   18.506785   24.822049 C.3        1 MOL1        -0.1450
      18    H12     18.762205   17.607495   24.594787 H          1 MOL1         0.0960
      19    H13     18.805886   19.356455   24.390608 H          1 MOL1         0.0960
      20    C7      19.413049   18.674362   26.352381 C.3        1 MOL1         0.0172
      21    H14     18.398112   18.681322   26.759081 H          1 MOL1         0.0934
      22    H15     19.951263   17.830897   26.793161 H          1 MOL1         0.0934
      23    N1      20.096203   19.952538   26.797536 N.4        1 MOL1        -0.5956
      24    H16     20.112478   20.039455   27.819537 H          1 MOL1         0.3624
      25    H17     19.621069   20.784900   26.433719 H          1 MOL1         0.3624
      26    H18     21.068693   19.994179   26.477399 H          1 MOL1         0.3624
@<TRIPOS>BOND
    1     1     2    1
    2     1     3    1
    3     1     4    1
    4     1     5    1
    5     5     6    1
    6     5     7    1
    7     5     8    1
    8     8     9    1
    9     8    10    1
   10     8    11    1
   11    11    12    1
   12    11    13    1
   13    11    14    1
   14    14    15    1
   15    14    16    1
   16    14    17    1
   17    17    18    1
   18    17    19    1
   19    17    20    1
   20    20    21    1
   21    20    22    1
   22    20    23    1
   23    23    24    1
   24    23    25    1
   25    23    26    1
@<TRIPOS>SUBSTRUCTURE
       1 MOL1            1 RESIDUE      1      MOL     
@<SCITEGIC>MOL_PROPERTY
VM2 Rank
SciTegic.value.IntegerValue
18

@<SCITEGIC>MOL_PROPERTY
Conf_Id
SciTegic.value.IntegerValue
701

@<SCITEGIC>MOL_PROPERTY
Probability
SciTegic.value.DoubleValue
1.58

@<SCITEGIC>MOL_PROPERTY
Sum Probability
SciTegic.value.DoubleValue
50.79

@<SCITEGIC>MOL_PROPERTY
Delta G
SciTegic.value.DoubleValue
0.924

@<SCITEGIC>MOL_PROPERTY
G
SciTegic.value.DoubleValue
49.185

@<SCITEGIC>MOL_PROPERTY
E
SciTegic.value.DoubleValue
16.618

@<SCITEGIC>MOL_PROPERTY
-TS
SciTegic.value.DoubleValue
32.567

@<SCITEGIC>MOL_PROPERTY
U+W
SciTegic.value.DoubleValue
-4.843

@<SCITEGIC>MOL_PROPERTY
U
SciTegic.value.DoubleValue
48.698

@<SCITEGIC>MOL_PROPERTY
W
SciTegic.value.DoubleValue
-53.541

@<SCITEGIC>MOL_PROPERTY
W(PB)
SciTegic.value.DoubleValue
-55.868

@<SCITEGIC>MOL_PROPERTY
W(SA)
SciTegic.value.DoubleValue
2.327

@<SCITEGIC>MOL_PROPERTY
Valence
SciTegic.value.DoubleValue
2.792

@<SCITEGIC>MOL_PROPERTY
Coulomb
SciTegic.value.DoubleValue
45.121

@<SCITEGIC>MOL_PROPERTY
VdW
SciTegic.value.DoubleValue
0.785

@<SCITEGIC>MOL_PROPERTY
VdW6
SciTegic.value.DoubleValue
-6.973

@<SCITEGIC>MOL_PROPERTY
VdW12
SciTegic.value.DoubleValue
7.758

@<SCITEGIC>MOL_PROPERTY
Bond
SciTegic.value.DoubleValue
0.189

@<SCITEGIC>MOL_PROPERTY
Angle
SciTegic.value.DoubleValue
0.672

@<SCITEGIC>MOL_PROPERTY
Pdih
SciTegic.value.DoubleValue
1.931

@<SCITEGIC>MOL_PROPERTY
Idih
SciTegic.value.DoubleValue
0.000

@<SCITEGIC>MOL_PROPERTY
Tether
SciTegic.value.DoubleValue
0.000

@<TRIPOS>MOLECULE
guest-s14_vm2.mol2 : vm2 ligand conformer 19
          26          25           1
SMALL
USER_CHARGES
 
@<TRIPOS>ATOM
       1    C1      19.501803   19.781796   19.385280 C.3        1 MOL1        -0.2400
       2    H1      20.144214   19.240270   18.678679 H          1 MOL1         0.0971
       3    H2      18.499084   19.850659   18.943861 H          1 MOL1         0.0971
       4    H3      19.894053   20.801628   19.491675 H          1 MOL1         0.0971
       5    C2      19.448180   19.063253   20.750235 C.3        1 MOL1        -0.1385
       6    H4      19.024975   18.057959   20.616122 H          1 MOL1         0.0960
       7    H5      18.765760   19.610573   21.413858 H          1 MOL1         0.0960
       8    C3      20.850742   18.958041   21.394467 C.3        1 MOL1        -0.1409
       9    H6      21.535723   18.479041   20.681233 H          1 MOL1         0.0960
      10    H7      21.251085   19.964848   21.576952 H          1 MOL1         0.0960
      11    C4      20.868613   18.145260   22.712427 C.3        1 MOL1        -0.1409
      12    H8      21.913045   18.024294   23.031679 H          1 MOL1         0.0960
      13    H9      20.484385   17.133068   22.524947 H          1 MOL1         0.0960
      14    C5      20.065172   18.806000   23.858375 C.3        1 MOL1        -0.1409
      15    H10     20.415573   19.837318   23.997752 H          1 MOL1         0.0960
      16    H11     19.002635   18.861812   23.587580 H          1 MOL1         0.0960
      17    C6      20.206463   18.019177   25.182906 C.3        1 MOL1        -0.1450
      18    H12     21.260116   17.984786   25.490486 H          1 MOL1         0.0960
      19    H13     19.892607   16.979045   25.022864 H          1 MOL1         0.0960
      20    C7      19.357635   18.614777   26.322695 C.3        1 MOL1         0.0172
      21    H14     18.308435   18.655389   26.017845 H          1 MOL1         0.0934
      22    H15     19.431917   17.972053   27.204143 H          1 MOL1         0.0934
      23    N1      19.782391   20.010695   26.734615 N.4        1 MOL1        -0.5956
      24    H16     19.206597   20.372729   27.502549 H          1 MOL1         0.3624
      25    H17     19.701877   20.676282   25.959743 H          1 MOL1         0.3624
      26    H18     20.756224   20.033497   27.054242 H          1 MOL1         0.3624
@<TRIPOS>BOND
    1     1     2    1
    2     1     3    1
    3     1     4    1
    4     1     5    1
    5     5     6    1
    6     5     7    1
    7     5     8    1
    8     8     9    1
    9     8    10    1
   10     8    11    1
   11    11    12    1
   12    11    13    1
   13    11    14    1
   14    14    15    1
   15    14    16    1
   16    14    17    1
   17    17    18    1
   18    17    19    1
   19    17    20    1
   20    20    21    1
   21    20    22    1
   22    20    23    1
   23    23    24    1
   24    23    25    1
   25    23    26    1
@<TRIPOS>SUBSTRUCTURE
       1 MOL1            1 RESIDUE      1      MOL     
@<SCITEGIC>MOL_PROPERTY
VM2 Rank
SciTegic.value.IntegerValue
19

@<SCITEGIC>MOL_PROPERTY
Conf_Id
SciTegic.value.IntegerValue
710

@<SCITEGIC>MOL_PROPERTY
Probability
SciTegic.value.DoubleValue
1.54

@<SCITEGIC>MOL_PROPERTY
Sum Probability
SciTegic.value.DoubleValue
52.33

@<SCITEGIC>MOL_PROPERTY
Delta G
SciTegic.value.DoubleValue
0.939

@<SCITEGIC>MOL_PROPERTY
G
SciTegic.value.DoubleValue
49.200

@<SCITEGIC>MOL_PROPERTY
E
SciTegic.value.DoubleValue
16.644

@<SCITEGIC>MOL_PROPERTY
-TS
SciTegic.value.DoubleValue
32.556

@<SCITEGIC>MOL_PROPERTY
U+W
SciTegic.value.DoubleValue
-4.818

@<SCITEGIC>MOL_PROPERTY
U
SciTegic.value.DoubleValue
48.735

@<SCITEGIC>MOL_PROPERTY
W
SciTegic.value.DoubleValue
-53.553

@<SCITEGIC>MOL_PROPERTY
W(PB)
SciTegic.value.DoubleValue
-55.889

@<SCITEGIC>MOL_PROPERTY
W(SA)
SciTegic.value.DoubleValue
2.336

@<SCITEGIC>MOL_PROPERTY
Valence
SciTegic.value.DoubleValue
2.803

@<SCITEGIC>MOL_PROPERTY
Coulomb
SciTegic.value.DoubleValue
45.123

@<SCITEGIC>MOL_PROPERTY
VdW
SciTegic.value.DoubleValue
0.809

@<SCITEGIC>MOL_PROPERTY
VdW6
SciTegic.value.DoubleValue
-6.953

@<SCITEGIC>MOL_PROPERTY
VdW12
SciTegic.value.DoubleValue
7.761

@<SCITEGIC>MOL_PROPERTY
Bond
SciTegic.value.DoubleValue
0.188

@<SCITEGIC>MOL_PROPERTY
Angle
SciTegic.value.DoubleValue
0.699

@<SCITEGIC>MOL_PROPERTY
Pdih
SciTegic.value.DoubleValue
1.917

@<SCITEGIC>MOL_PROPERTY
Idih
SciTegic.value.DoubleValue
0.000

@<SCITEGIC>MOL_PROPERTY
Tether
SciTegic.value.DoubleValue
0.000

@<TRIPOS>MOLECULE
guest-s14_vm2.mol2 : vm2 ligand conformer 20
          26          25           1
SMALL
USER_CHARGES
 
@<TRIPOS>ATOM
       1    C1      19.603464   19.849000   19.388728 C.3        1 MOL1        -0.2400
       2    H1      18.507714   19.886018   19.445272 H          1 MOL1         0.0971
       3    H2      19.953245   20.811167   18.992590 H          1 MOL1         0.0971
       4    H3      19.882621   19.067530   18.669977 H          1 MOL1         0.0971
       5    C2      20.221195   19.573911   20.776179 C.3        1 MOL1        -0.1385
       6    H4      19.954315   20.395711   21.453727 H          1 MOL1         0.0960
       7    H5      21.316995   19.571984   20.692961 H          1 MOL1         0.0960
       8    C3      19.738940   18.223699   21.357253 C.3        1 MOL1        -0.1409
       9    H6      18.648449   18.245765   21.489816 H          1 MOL1         0.0960
      10    H7      19.944302   17.427925   20.627930 H          1 MOL1         0.0960
      11    C4      20.417516   17.847269   22.697325 C.3        1 MOL1        -0.1409
      12    H8      21.506875   17.808289   22.559160 H          1 MOL1         0.0960
      13    H9      20.104921   16.830072   22.971157 H          1 MOL1         0.0960
      14    C5      20.071497   18.810090   23.858590 C.3        1 MOL1        -0.1409
      15    H10     20.448874   19.816804   23.636013 H          1 MOL1         0.0960
      16    H11     18.980048   18.889225   23.949681 H          1 MOL1         0.0960
      17    C6      20.677501   18.330165   25.198688 C.3        1 MOL1        -0.1450
      18    H12     21.763684   18.214458   25.085501 H          1 MOL1         0.0960
      19    H13     20.282075   17.338972   25.457815 H          1 MOL1         0.0960
      20    C7      20.409593   19.309387   26.357878 C.3        1 MOL1         0.0172
      21    H14     20.929976   18.961255   27.254297 H          1 MOL1         0.0934
      22    H15     20.797527   20.298824   26.101117 H          1 MOL1         0.0934
      23    N1      18.941293   19.455478   26.706359 N.4        1 MOL1        -0.5956
      24    H16     18.798393   20.103352   27.488771 H          1 MOL1         0.3624
      25    H17     18.523913   18.559783   26.979403 H          1 MOL1         0.3624
      26    H18     18.397383   19.815087   25.915945 H          1 MOL1         0.3624
@<TRIPOS>BOND
    1     1     2    1
    2     1     3    1
    3     1     4    1
    4     1     5    1
    5     5     6    1
    6     5     7    1
    7     5     8    1
    8     8     9    1
    9     8    10    1
   10     8    11    1
   11    11    12    1
   12    11    13    1
   13    11    14    1
   14    14    15    1
   15    14    16    1
   16    14    17    1
   17    17    18    1
   18    17    19    1
   19    17    20    1
   20    20    21    1
   21    20    22    1
   22    20    23    1
   23    23    24    1
   24    23    25    1
   25    23    26    1
@<TRIPOS>SUBSTRUCTURE
       1 MOL1            1 RESIDUE      1      MOL     
@<SCITEGIC>MOL_PROPERTY
VM2 Rank
SciTegic.value.IntegerValue
20

@<SCITEGIC>MOL_PROPERTY
Conf_Id
SciTegic.value.IntegerValue
418

@<SCITEGIC>MOL_PROPERTY
Probability
SciTegic.value.DoubleValue
1.51

@<SCITEGIC>MOL_PROPERTY
Sum Probability
SciTegic.value.DoubleValue
53.83

@<SCITEGIC>MOL_PROPERTY
Delta G
SciTegic.value.DoubleValue
0.952

@<SCITEGIC>MOL_PROPERTY
G
SciTegic.value.DoubleValue
49.214

@<SCITEGIC>MOL_PROPERTY
E
SciTegic.value.DoubleValue
16.658

@<SCITEGIC>MOL_PROPERTY
-TS
SciTegic.value.DoubleValue
32.556

@<SCITEGIC>MOL_PROPERTY
U+W
SciTegic.value.DoubleValue
-4.804

@<SCITEGIC>MOL_PROPERTY
U
SciTegic.value.DoubleValue
48.735

@<SCITEGIC>MOL_PROPERTY
W
SciTegic.value.DoubleValue
-53.539

@<SCITEGIC>MOL_PROPERTY
W(PB)
SciTegic.value.DoubleValue
-55.859

@<SCITEGIC>MOL_PROPERTY
W(SA)
SciTegic.value.DoubleValue
2.320

@<SCITEGIC>MOL_PROPERTY
Valence
SciTegic.value.DoubleValue
2.803

@<SCITEGIC>MOL_PROPERTY
Coulomb
SciTegic.value.DoubleValue
45.123

@<SCITEGIC>MOL_PROPERTY
VdW
SciTegic.value.DoubleValue
0.809

@<SCITEGIC>MOL_PROPERTY
VdW6
SciTegic.value.DoubleValue
-6.953

@<SCITEGIC>MOL_PROPERTY
VdW12
SciTegic.value.DoubleValue
7.761

@<SCITEGIC>MOL_PROPERTY
Bond
SciTegic.value.DoubleValue
0.188

@<SCITEGIC>MOL_PROPERTY
Angle
SciTegic.value.DoubleValue
0.699

@<SCITEGIC>MOL_PROPERTY
Pdih
SciTegic.value.DoubleValue
1.917

@<SCITEGIC>MOL_PROPERTY
Idih
SciTegic.value.DoubleValue
0.000

@<SCITEGIC>MOL_PROPERTY
Tether
SciTegic.value.DoubleValue
0.000

@<TRIPOS>MOLECULE
guest-s14_vm2.mol2 : vm2 ligand conformer 21
          26          25           1
SMALL
USER_CHARGES
 
@<TRIPOS>ATOM
       1    C1      20.770225   19.765803   19.472765 C.3        1 MOL1        -0.2400
       2    H1      20.425863   19.038433   18.726054 H          1 MOL1         0.0971
       3    H2      20.126316   20.652657   19.408633 H          1 MOL1         0.0971
       4    H3      21.789822   20.069235   19.201867 H          1 MOL1         0.0971
       5    C2      20.740707   19.160802   20.892407 C.3        1 MOL1        -0.1385
       6    H4      21.129850   19.901961   21.602899 H          1 MOL1         0.0960
       7    H5      21.415634   18.294472   20.933070 H          1 MOL1         0.0960
       8    C3      19.311584   18.729393   21.298454 C.3        1 MOL1        -0.1409
       9    H6      18.649220   19.605968   21.310252 H          1 MOL1         0.0960
      10    H7      18.912171   18.052127   20.530908 H          1 MOL1         0.0960
      11    C4      19.245731   18.010298   22.668343 C.3        1 MOL1        -0.1409
      12    H8      19.897184   17.125633   22.650847 H          1 MOL1         0.0960
      13    H9      18.222798   17.636868   22.815000 H          1 MOL1         0.0960
      14    C5      19.627643   18.917095   23.863047 C.3        1 MOL1        -0.1409
      15    H10     20.671931   19.238338   23.764065 H          1 MOL1         0.0960
      16    H11     19.009290   19.825296   23.846655 H          1 MOL1         0.0960
      17    C6      19.438606   18.190376   25.215740 C.3        1 MOL1        -0.1450
      18    H12     20.073310   17.295002   25.253834 H          1 MOL1         0.0960
      19    H13     18.400496   17.842305   25.300101 H          1 MOL1         0.0960
      20    C7      19.748763   19.092941   26.425576 C.3        1 MOL1         0.0172
      21    H14     19.123947   19.989291   26.385966 H          1 MOL1         0.0934
      22    H15     19.514969   18.555020   27.348366 H          1 MOL1         0.0934
      23    N1      21.197742   19.532292   26.504668 N.4        1 MOL1        -0.5956
      24    H16     21.474582   20.078131   25.682933 H          1 MOL1         0.3624
      25    H17     21.835386   18.731902   26.566520 H          1 MOL1         0.3624
      26    H18     21.372999   20.118992   27.327724 H          1 MOL1         0.3624
@<TRIPOS>BOND
    1     1     2    1
    2     1     3    1
    3     1     4    1
    4     1     5    1
    5     5     6    1
    6     5     7    1
    7     5     8    1
    8     8     9    1
    9     8    10    1
   10     8    11    1
   11    11    12    1
   12    11    13    1
   13    11    14    1
   14    14    15    1
   15    14    16    1
   16    14    17    1
   17    17    18    1
   18    17    19    1
   19    17    20    1
   20    20    21    1
   21    20    22    1
   22    20    23    1
   23    23    24    1
   24    23    25    1
   25    23    26    1
@<TRIPOS>SUBSTRUCTURE
       1 MOL1            1 RESIDUE      1      MOL     
@<SCITEGIC>MOL_PROPERTY
VM2 Rank
SciTegic.value.IntegerValue
21

@<SCITEGIC>MOL_PROPERTY
Conf_Id
SciTegic.value.IntegerValue
1004

@<SCITEGIC>MOL_PROPERTY
Probability
SciTegic.value.DoubleValue
1.50

@<SCITEGIC>MOL_PROPERTY
Sum Probability
SciTegic.value.DoubleValue
55.33

@<SCITEGIC>MOL_PROPERTY
Delta G
SciTegic.value.DoubleValue
0.956

@<SCITEGIC>MOL_PROPERTY
G
SciTegic.value.DoubleValue
49.217

@<SCITEGIC>MOL_PROPERTY
E
SciTegic.value.DoubleValue
16.668

@<SCITEGIC>MOL_PROPERTY
-TS
SciTegic.value.DoubleValue
32.549

@<SCITEGIC>MOL_PROPERTY
U+W
SciTegic.value.DoubleValue
-4.794

@<SCITEGIC>MOL_PROPERTY
U
SciTegic.value.DoubleValue
48.945

@<SCITEGIC>MOL_PROPERTY
W
SciTegic.value.DoubleValue
-53.738

@<SCITEGIC>MOL_PROPERTY
W(PB)
SciTegic.value.DoubleValue
-56.050

@<SCITEGIC>MOL_PROPERTY
W(SA)
SciTegic.value.DoubleValue
2.313

@<SCITEGIC>MOL_PROPERTY
Valence
SciTegic.value.DoubleValue
2.802

@<SCITEGIC>MOL_PROPERTY
Coulomb
SciTegic.value.DoubleValue
45.335

@<SCITEGIC>MOL_PROPERTY
VdW
SciTegic.value.DoubleValue
0.807

@<SCITEGIC>MOL_PROPERTY
VdW6
SciTegic.value.DoubleValue
-6.962

@<SCITEGIC>MOL_PROPERTY
VdW12
SciTegic.value.DoubleValue
7.769

@<SCITEGIC>MOL_PROPERTY
Bond
SciTegic.value.DoubleValue
0.189

@<SCITEGIC>MOL_PROPERTY
Angle
SciTegic.value.DoubleValue
0.696

@<SCITEGIC>MOL_PROPERTY
Pdih
SciTegic.value.DoubleValue
1.917

@<SCITEGIC>MOL_PROPERTY
Idih
SciTegic.value.DoubleValue
0.000

@<SCITEGIC>MOL_PROPERTY
Tether
SciTegic.value.DoubleValue
0.000

@<TRIPOS>MOLECULE
guest-s14_vm2.mol2 : vm2 ligand conformer 22
          26          25           1
SMALL
USER_CHARGES
 
@<TRIPOS>ATOM
       1    C1      20.093214   19.806825   19.248598 C.3        1 MOL1        -0.2400
       2    H1      19.041548   20.118194   19.200799 H          1 MOL1         0.0971
       3    H2      20.697000   20.682245   19.521201 H          1 MOL1         0.0971
       4    H3      20.396407   19.488434   18.242745 H          1 MOL1         0.0971
       5    C2      20.286862   18.660991   20.264371 C.3        1 MOL1        -0.1385
       6    H4      21.340750   18.349141   20.265808 H          1 MOL1         0.0960
       7    H5      19.698612   17.788933   19.945970 H          1 MOL1         0.0960
       8    C3      19.866194   19.082663   21.689768 C.3        1 MOL1        -0.1409
       9    H6      20.454035   19.959477   21.990738 H          1 MOL1         0.0960
      10    H7      18.811672   19.391143   21.683507 H          1 MOL1         0.0960
      11    C4      20.064283   17.935475   22.709746 C.3        1 MOL1        -0.1409
      12    H8      21.127625   17.663301   22.760212 H          1 MOL1         0.0960
      13    H9      19.534706   17.042739   22.349215 H          1 MOL1         0.0960
      14    C5      19.546507   18.270350   24.130340 C.3        1 MOL1        -0.1409
      15    H10     18.481446   18.536064   24.080427 H          1 MOL1         0.0960
      16    H11     19.608783   17.359106   24.739714 H          1 MOL1         0.0960
      17    C6      20.336177   19.408240   24.824915 C.3        1 MOL1        -0.1450
      18    H12     20.242498   20.334269   24.244337 H          1 MOL1         0.0960
      19    H13     21.405769   19.161439   24.853901 H          1 MOL1         0.0960
      20    C7      19.835329   19.692038   26.254386 C.3        1 MOL1         0.0172
      21    H14     20.360270   20.563329   26.655444 H          1 MOL1         0.0934
      22    H15     18.766084   19.919206   26.231587 H          1 MOL1         0.0934
      23    N1      20.052434   18.542419   27.218875 N.4        1 MOL1        -0.5956
      24    H16     19.553709   17.697966   26.922170 H          1 MOL1         0.3624
      25    H17     19.721763   18.769998   28.162902 H          1 MOL1         0.3624
      26    H18     21.044222   18.296012   27.300496 H          1 MOL1         0.3624
@<TRIPOS>BOND
    1     1     2    1
    2     1     3    1
    3     1     4    1
    4     1     5    1
    5     5     6    1
    6     5     7    1
    7     5     8    1
    8     8     9    1
    9     8    10    1
   10     8    11    1
   11    11    12    1
   12    11    13    1
   13    11    14    1
   14    14    15    1
   15    14    16    1
   16    14    17    1
   17    17    18    1
   18    17    19    1
   19    17    20    1
   20    20    21    1
   21    20    22    1
   22    20    23    1
   23    23    24    1
   24    23    25    1
   25    23    26    1
@<TRIPOS>SUBSTRUCTURE
       1 MOL1            1 RESIDUE      1      MOL     
@<SCITEGIC>MOL_PROPERTY
VM2 Rank
SciTegic.value.IntegerValue
22

@<SCITEGIC>MOL_PROPERTY
Conf_Id
SciTegic.value.IntegerValue
534

@<SCITEGIC>MOL_PROPERTY
Probability
SciTegic.value.DoubleValue
1.46

@<SCITEGIC>MOL_PROPERTY
Sum Probability
SciTegic.value.DoubleValue
56.79

@<SCITEGIC>MOL_PROPERTY
Delta G
SciTegic.value.DoubleValue
0.972

@<SCITEGIC>MOL_PROPERTY
G
SciTegic.value.DoubleValue
49.234

@<SCITEGIC>MOL_PROPERTY
E
SciTegic.value.DoubleValue
16.699

@<SCITEGIC>MOL_PROPERTY
-TS
SciTegic.value.DoubleValue
32.534

@<SCITEGIC>MOL_PROPERTY
U+W
SciTegic.value.DoubleValue
-4.762

@<SCITEGIC>MOL_PROPERTY
U
SciTegic.value.DoubleValue
48.583

@<SCITEGIC>MOL_PROPERTY
W
SciTegic.value.DoubleValue
-53.345

@<SCITEGIC>MOL_PROPERTY
W(PB)
SciTegic.value.DoubleValue
-55.664

@<SCITEGIC>MOL_PROPERTY
W(SA)
SciTegic.value.DoubleValue
2.319

@<SCITEGIC>MOL_PROPERTY
Valence
SciTegic.value.DoubleValue
2.825

@<SCITEGIC>MOL_PROPERTY
Coulomb
SciTegic.value.DoubleValue
44.916

@<SCITEGIC>MOL_PROPERTY
VdW
SciTegic.value.DoubleValue
0.842

@<SCITEGIC>MOL_PROPERTY
VdW6
SciTegic.value.DoubleValue
-6.929

@<SCITEGIC>MOL_PROPERTY
VdW12
SciTegic.value.DoubleValue
7.771

@<SCITEGIC>MOL_PROPERTY
Bond
SciTegic.value.DoubleValue
0.195

@<SCITEGIC>MOL_PROPERTY
Angle
SciTegic.value.DoubleValue
0.721

@<SCITEGIC>MOL_PROPERTY
Pdih
SciTegic.value.DoubleValue
1.909

@<SCITEGIC>MOL_PROPERTY
Idih
SciTegic.value.DoubleValue
0.000

@<SCITEGIC>MOL_PROPERTY
Tether
SciTegic.value.DoubleValue
0.000

@<TRIPOS>MOLECULE
guest-s14_vm2.mol2 : vm2 ligand conformer 23
          26          25           1
SMALL
USER_CHARGES
 
@<TRIPOS>ATOM
       1    C1      19.355723   19.320392   19.223872 C.3        1 MOL1        -0.2400
       2    H1      19.485145   20.410538   19.215439 H          1 MOL1         0.0971
       3    H2      19.575859   18.947128   18.215281 H          1 MOL1         0.0971
       4    H3      18.301825   19.102802   19.441080 H          1 MOL1         0.0971
       5    C2      20.284711   18.659532   20.264295 C.3        1 MOL1        -0.1385
       6    H4      21.331545   18.865652   20.000560 H          1 MOL1         0.0960
       7    H5      20.157084   17.568569   20.226293 H          1 MOL1         0.0960
       8    C3      19.996272   19.168497   21.694083 C.3        1 MOL1        -0.1409
       9    H6      20.127315   20.258880   21.727364 H          1 MOL1         0.0960
      10    H7      18.946083   18.965018   21.940340 H          1 MOL1         0.0960
      11    C4      20.924730   18.503066   22.738502 C.3        1 MOL1        -0.1409
      12    H8      21.969431   18.648682   22.430599 H          1 MOL1         0.0960
      13    H9      20.754913   17.417526   22.747767 H          1 MOL1         0.0960
      14    C5      20.754288   19.067059   24.170700 C.3        1 MOL1        -0.1409
      15    H10     21.538563   18.632091   24.804178 H          1 MOL1         0.0960
      16    H11     20.930548   20.151639   24.162250 H          1 MOL1         0.0960
      17    C6      19.366822   18.768720   24.792579 C.3        1 MOL1        -0.1450
      18    H12     19.172432   17.688064   24.779390 H          1 MOL1         0.0960
      19    H13     18.579934   19.237411   24.188832 H          1 MOL1         0.0960
      20    C7      19.236205   19.296807   26.234399 C.3        1 MOL1         0.0172
      21    H14     19.448152   20.369228   26.254346 H          1 MOL1         0.0934
      22    H15     18.211190   19.145540   26.583715 H          1 MOL1         0.0934
      23    N1      20.162248   18.614928   27.222570 N.4        1 MOL1        -0.5956
      24    H16     21.147470   18.749538   26.975423 H          1 MOL1         0.3624
      25    H17     19.995674   17.604269   27.265514 H          1 MOL1         0.3624
      26    H18     20.039030   18.979383   28.173524 H          1 MOL1         0.3624
@<TRIPOS>BOND
    1     1     2    1
    2     1     3    1
    3     1     4    1
    4     1     5    1
    5     5     6    1
    6     5     7    1
    7     5     8    1
    8     8     9    1
    9     8    10    1
   10     8    11    1
   11    11    12    1
   12    11    13    1
   13    11    14    1
   14    14    15    1
   15    14    16    1
   16    14    17    1
   17    17    18    1
   18    17    19    1
   19    17    20    1
   20    20    21    1
   21    20    22    1
   22    20    23    1
   23    23    24    1
   24    23    25    1
   25    23    26    1
@<TRIPOS>SUBSTRUCTURE
       1 MOL1            1 RESIDUE      1      MOL     
@<SCITEGIC>MOL_PROPERTY
VM2 Rank
SciTegic.value.IntegerValue
23

@<SCITEGIC>MOL_PROPERTY
Conf_Id
SciTegic.value.IntegerValue
749

@<SCITEGIC>MOL_PROPERTY
Probability
SciTegic.value.DoubleValue
1.41

@<SCITEGIC>MOL_PROPERTY
Sum Probability
SciTegic.value.DoubleValue
58.20

@<SCITEGIC>MOL_PROPERTY
Delta G
SciTegic.value.DoubleValue
0.990

@<SCITEGIC>MOL_PROPERTY
G
SciTegic.value.DoubleValue
49.251

@<SCITEGIC>MOL_PROPERTY
E
SciTegic.value.DoubleValue
16.717

@<SCITEGIC>MOL_PROPERTY
-TS
SciTegic.value.DoubleValue
32.534

@<SCITEGIC>MOL_PROPERTY
U+W
SciTegic.value.DoubleValue
-4.745

@<SCITEGIC>MOL_PROPERTY
U
SciTegic.value.DoubleValue
48.583

@<SCITEGIC>MOL_PROPERTY
W
SciTegic.value.DoubleValue
-53.328

@<SCITEGIC>MOL_PROPERTY
W(PB)
SciTegic.value.DoubleValue
-55.653

@<SCITEGIC>MOL_PROPERTY
W(SA)
SciTegic.value.DoubleValue
2.326

@<SCITEGIC>MOL_PROPERTY
Valence
SciTegic.value.DoubleValue
2.825

@<SCITEGIC>MOL_PROPERTY
Coulomb
SciTegic.value.DoubleValue
44.916

@<SCITEGIC>MOL_PROPERTY
VdW
SciTegic.value.DoubleValue
0.842

@<SCITEGIC>MOL_PROPERTY
VdW6
SciTegic.value.DoubleValue
-6.929

@<SCITEGIC>MOL_PROPERTY
VdW12
SciTegic.value.DoubleValue
7.771

@<SCITEGIC>MOL_PROPERTY
Bond
SciTegic.value.DoubleValue
0.195

@<SCITEGIC>MOL_PROPERTY
Angle
SciTegic.value.DoubleValue
0.721

@<SCITEGIC>MOL_PROPERTY
Pdih
SciTegic.value.DoubleValue
1.909

@<SCITEGIC>MOL_PROPERTY
Idih
SciTegic.value.DoubleValue
0.000

@<SCITEGIC>MOL_PROPERTY
Tether
SciTegic.value.DoubleValue
0.000

@<TRIPOS>MOLECULE
guest-s14_vm2.mol2 : vm2 ligand conformer 24
          26          25           1
SMALL
USER_CHARGES
 
@<TRIPOS>ATOM
       1    C1      19.117001   18.675464   19.417511 C.3        1 MOL1        -0.2400
       2    H1      19.955006   18.728359   18.710278 H          1 MOL1         0.0971
       3    H2      18.450804   17.866730   19.090150 H          1 MOL1         0.0971
       4    H3      18.557926   19.618304   19.356435 H          1 MOL1         0.0971
       5    C2      19.618384   18.420402   20.854813 C.3        1 MOL1        -0.1385
       6    H4      20.147463   17.457844   20.890396 H          1 MOL1         0.0960
       7    H5      18.751833   18.332994   21.523391 H          1 MOL1         0.0960
       8    C3      20.556642   19.550699   21.340080 C.3        1 MOL1        -0.1409
       9    H6      21.371234   19.674375   20.613107 H          1 MOL1         0.0960
      10    H7      20.010830   20.504160   21.355878 H          1 MOL1         0.0960
      11    C4      21.179313   19.285662   22.732941 C.3        1 MOL1        -0.1409
      12    H8      21.917137   20.073536   22.938415 H          1 MOL1         0.0960
      13    H9      21.736924   18.339106   22.712271 H          1 MOL1         0.0960
      14    C5      20.140896   19.255651   23.880218 C.3        1 MOL1        -0.1409
      15    H10     19.550330   20.182178   23.864840 H          1 MOL1         0.0960
      16    H11     19.440333   18.426199   23.722899 H          1 MOL1         0.0960
      17    C6      20.819713   19.101143   25.261874 C.3        1 MOL1        -0.1450
      18    H12     21.543223   19.914753   25.405099 H          1 MOL1         0.0960
      19    H13     21.391013   18.163955   25.297779 H          1 MOL1         0.0960
      20    C7      19.812682   19.134996   26.427753 C.3        1 MOL1         0.0172
      21    H14     20.355681   19.109244   27.376463 H          1 MOL1         0.0934
      22    H15     19.236670   20.063535   26.389861 H          1 MOL1         0.0934
      23    N1      18.836368   17.974982   26.425810 N.4        1 MOL1        -0.5956
      24    H16     18.190452   18.020028   27.221496 H          1 MOL1         0.3624
      25    H17     19.318178   17.071820   26.482320 H          1 MOL1         0.3624
      26    H18     18.264453   17.961242   25.575779 H          1 MOL1         0.3624
@<TRIPOS>BOND
    1     1     2    1
    2     1     3    1
    3     1     4    1
    4     1     5    1
    5     5     6    1
    6     5     7    1
    7     5     8    1
    8     8     9    1
    9     8    10    1
   10     8    11    1
   11    11    12    1
   12    11    13    1
   13    11    14    1
   14    14    15    1
   15    14    16    1
   16    14    17    1
   17    17    18    1
   18    17    19    1
   19    17    20    1
   20    20    21    1
   21    20    22    1
   22    20    23    1
   23    23    24    1
   24    23    25    1
   25    23    26    1
@<TRIPOS>SUBSTRUCTURE
       1 MOL1            1 RESIDUE      1      MOL     
@<SCITEGIC>MOL_PROPERTY
VM2 Rank
SciTegic.value.IntegerValue
24

@<SCITEGIC>MOL_PROPERTY
Conf_Id
SciTegic.value.IntegerValue
1238

@<SCITEGIC>MOL_PROPERTY
Probability
SciTegic.value.DoubleValue
1.30

@<SCITEGIC>MOL_PROPERTY
Sum Probability
SciTegic.value.DoubleValue
59.50

@<SCITEGIC>MOL_PROPERTY
Delta G
SciTegic.value.DoubleValue
1.039

@<SCITEGIC>MOL_PROPERTY
G
SciTegic.value.DoubleValue
49.300

@<SCITEGIC>MOL_PROPERTY
E
SciTegic.value.DoubleValue
16.751

@<SCITEGIC>MOL_PROPERTY
-TS
SciTegic.value.DoubleValue
32.549

@<SCITEGIC>MOL_PROPERTY
U+W
SciTegic.value.DoubleValue
-4.710

@<SCITEGIC>MOL_PROPERTY
U
SciTegic.value.DoubleValue
48.945

@<SCITEGIC>MOL_PROPERTY
W
SciTegic.value.DoubleValue
-53.655

@<SCITEGIC>MOL_PROPERTY
W(PB)
SciTegic.value.DoubleValue
-55.991

@<SCITEGIC>MOL_PROPERTY
W(SA)
SciTegic.value.DoubleValue
2.336

@<SCITEGIC>MOL_PROPERTY
Valence
SciTegic.value.DoubleValue
2.803

@<SCITEGIC>MOL_PROPERTY
Coulomb
SciTegic.value.DoubleValue
45.335

@<SCITEGIC>MOL_PROPERTY
VdW
SciTegic.value.DoubleValue
0.807

@<SCITEGIC>MOL_PROPERTY
VdW6
SciTegic.value.DoubleValue
-6.962

@<SCITEGIC>MOL_PROPERTY
VdW12
SciTegic.value.DoubleValue
7.769

@<SCITEGIC>MOL_PROPERTY
Bond
SciTegic.value.DoubleValue
0.189

@<SCITEGIC>MOL_PROPERTY
Angle
SciTegic.value.DoubleValue
0.696

@<SCITEGIC>MOL_PROPERTY
Pdih
SciTegic.value.DoubleValue
1.917

@<SCITEGIC>MOL_PROPERTY
Idih
SciTegic.value.DoubleValue
0.000

@<SCITEGIC>MOL_PROPERTY
Tether
SciTegic.value.DoubleValue
0.000

@<TRIPOS>MOLECULE
guest-s14_vm2.mol2 : vm2 ligand conformer 25
          26          25           1
SMALL
USER_CHARGES
 
@<TRIPOS>ATOM
       1    C1      21.049988   20.067470   20.177401 C.3        1 MOL1        -0.2400
       2    H1      21.716218   20.130860   21.046616 H          1 MOL1         0.0971
       3    H2      21.674006   20.144991   19.277663 H          1 MOL1         0.0971
       4    H3      20.377158   20.934657   20.194907 H          1 MOL1         0.0971
       5    C2      20.251262   18.744274   20.168921 C.3        1 MOL1        -0.1385
       6    H4      20.946127   17.892978   20.183418 H          1 MOL1         0.0960
       7    H5      19.696497   18.671989   19.222977 H          1 MOL1         0.0960
       8    C3      19.249225   18.622218   21.342326 C.3        1 MOL1        -0.1409
       9    H6      18.544010   19.464234   21.311515 H          1 MOL1         0.0960
      10    H7      18.650803   17.712430   21.195759 H          1 MOL1         0.0960
      11    C4      19.929688   18.561951   22.730977 C.3        1 MOL1        -0.1409
      12    H8      20.476833   19.495464   22.912460 H          1 MOL1         0.0960
      13    H9      20.669410   17.749641   22.741063 H          1 MOL1         0.0960
      14    C5      18.899358   18.336425   23.863615 C.3        1 MOL1        -0.1409
      15    H10     18.174793   19.162556   23.875375 H          1 MOL1         0.0960
      16    H11     18.325606   17.423047   23.654038 H          1 MOL1         0.0960
      17    C6      19.551193   18.202053   25.259965 C.3        1 MOL1        -0.1450
      18    H12     20.258622   17.362091   25.257725 H          1 MOL1         0.0960
      19    H13     18.772691   17.955467   25.994179 H          1 MOL1         0.0960
      20    C7      20.274138   19.486935   25.705901 C.3        1 MOL1         0.0172
      21    H14     21.081907   19.719040   25.007119 H          1 MOL1         0.0934
      22    H15     19.569819   20.323190   25.708743 H          1 MOL1         0.0934
      23    N1      20.876146   19.377674   27.091893 N.4        1 MOL1        -0.5956
      24    H16     21.352318   20.242759   27.369871 H          1 MOL1         0.3624
      25    H17     21.568829   18.623959   27.149347 H          1 MOL1         0.3624
      26    H18     20.163519   19.187460   27.804068 H          1 MOL1         0.3624
@<TRIPOS>BOND
    1     1     2    1
    2     1     3    1
    3     1     4    1
    4     1     5    1
    5     5     6    1
    6     5     7    1
    7     5     8    1
    8     8     9    1
    9     8    10    1
   10     8    11    1
   11    11    12    1
   12    11    13    1
   13    11    14    1
   14    14    15    1
   15    14    16    1
   16    14    17    1
   17    17    18    1
   18    17    19    1
   19    17    20    1
   20    20    21    1
   21    20    22    1
   22    20    23    1
   23    23    24    1
   24    23    25    1
   25    23    26    1
@<TRIPOS>SUBSTRUCTURE
       1 MOL1            1 RESIDUE      1      MOL     
@<SCITEGIC>MOL_PROPERTY
VM2 Rank
SciTegic.value.IntegerValue
25

@<SCITEGIC>MOL_PROPERTY
Conf_Id
SciTegic.value.IntegerValue
694

@<SCITEGIC>MOL_PROPERTY
Probability
SciTegic.value.DoubleValue
1.27

@<SCITEGIC>MOL_PROPERTY
Sum Probability
SciTegic.value.DoubleValue
60.78

@<SCITEGIC>MOL_PROPERTY
Delta G
SciTegic.value.DoubleValue
1.053

@<SCITEGIC>MOL_PROPERTY
G
SciTegic.value.DoubleValue
49.314

@<SCITEGIC>MOL_PROPERTY
E
SciTegic.value.DoubleValue
16.754

@<SCITEGIC>MOL_PROPERTY
-TS
SciTegic.value.DoubleValue
32.560

@<SCITEGIC>MOL_PROPERTY
U+W
SciTegic.value.DoubleValue
-4.708

@<SCITEGIC>MOL_PROPERTY
U
SciTegic.value.DoubleValue
48.723

@<SCITEGIC>MOL_PROPERTY
W
SciTegic.value.DoubleValue
-53.431

@<SCITEGIC>MOL_PROPERTY
W(PB)
SciTegic.value.DoubleValue
-55.776

@<SCITEGIC>MOL_PROPERTY
W(SA)
SciTegic.value.DoubleValue
2.344

@<SCITEGIC>MOL_PROPERTY
Valence
SciTegic.value.DoubleValue
2.962

@<SCITEGIC>MOL_PROPERTY
Coulomb
SciTegic.value.DoubleValue
44.993

@<SCITEGIC>MOL_PROPERTY
VdW
SciTegic.value.DoubleValue
0.768

@<SCITEGIC>MOL_PROPERTY
VdW6
SciTegic.value.DoubleValue
-7.008

@<SCITEGIC>MOL_PROPERTY
VdW12
SciTegic.value.DoubleValue
7.776

@<SCITEGIC>MOL_PROPERTY
Bond
SciTegic.value.DoubleValue
0.188

@<SCITEGIC>MOL_PROPERTY
Angle
SciTegic.value.DoubleValue
0.756

@<SCITEGIC>MOL_PROPERTY
Pdih
SciTegic.value.DoubleValue
2.018

@<SCITEGIC>MOL_PROPERTY
Idih
SciTegic.value.DoubleValue
0.000

@<SCITEGIC>MOL_PROPERTY
Tether
SciTegic.value.DoubleValue
0.000

@<TRIPOS>MOLECULE
guest-s14_vm2.mol2 : vm2 ligand conformer 26
          26          25           1
SMALL
USER_CHARGES
 
@<TRIPOS>ATOM
       1    C1      20.128582   17.813292   19.841706 C.3        1 MOL1        -0.2400
       2    H1      19.072629   17.907185   19.556800 H          1 MOL1         0.0971
       3    H2      20.677542   17.427244   18.973061 H          1 MOL1         0.0971
       4    H3      20.204713   17.063847   20.639198 H          1 MOL1         0.0971
       5    C2      20.707772   19.175771   20.285485 C.3        1 MOL1        -0.1385
       6    H4      20.721538   19.853296   19.420287 H          1 MOL1         0.0960
       7    H5      21.755100   19.049437   20.593529 H          1 MOL1         0.0960
       8    C3      19.903354   19.844052   21.426567 C.3        1 MOL1        -0.1409
       9    H6      20.315398   20.847387   21.602304 H          1 MOL1         0.0960
      10    H7      18.862769   19.989220   21.105062 H          1 MOL1         0.0960
      11    C4      19.934166   19.046103   22.752163 C.3        1 MOL1        -0.1409
      12    H8      20.978266   18.855476   23.033797 H          1 MOL1         0.0960
      13    H9      19.457007   18.067662   22.609580 H          1 MOL1         0.0960
      14    C5      19.208934   19.801969   23.891390 C.3        1 MOL1        -0.1409
      15    H10     19.703275   20.766981   24.070205 H          1 MOL1         0.0960
      16    H11     18.182279   20.032740   23.574913 H          1 MOL1         0.0960
      17    C6      19.152211   18.999584   25.212591 C.3        1 MOL1        -0.1450
      18    H12     18.634424   18.046031   25.043382 H          1 MOL1         0.0960
      19    H13     18.551884   19.558027   25.943130 H          1 MOL1         0.0960
      20    C7      20.547824   18.732675   25.807014 C.3        1 MOL1         0.0172
      21    H14     21.141098   18.138801   25.106995 H          1 MOL1         0.0934
      22    H15     21.063086   19.681956   25.976605 H          1 MOL1         0.0934
      23    N1      20.498158   17.985554   27.124084 N.4        1 MOL1        -0.5956
      24    H16     21.436711   17.818089   27.502848 H          1 MOL1         0.3624
      25    H17     20.047590   17.069698   27.027183 H          1 MOL1         0.3624
      26    H18     19.976593   18.504381   27.838229 H          1 MOL1         0.3624
@<TRIPOS>BOND
    1     1     2    1
    2     1     3    1
    3     1     4    1
    4     1     5    1
    5     5     6    1
    6     5     7    1
    7     5     8    1
    8     8     9    1
    9     8    10    1
   10     8    11    1
   11    11    12    1
   12    11    13    1
   13    11    14    1
   14    14    15    1
   15    14    16    1
   16    14    17    1
   17    17    18    1
   18    17    19    1
   19    17    20    1
   20    20    21    1
   21    20    22    1
   22    20    23    1
   23    23    24    1
   24    23    25    1
   25    23    26    1
@<TRIPOS>SUBSTRUCTURE
       1 MOL1            1 RESIDUE      1      MOL     
@<SCITEGIC>MOL_PROPERTY
VM2 Rank
SciTegic.value.IntegerValue
26

@<SCITEGIC>MOL_PROPERTY
Conf_Id
SciTegic.value.IntegerValue
963

@<SCITEGIC>MOL_PROPERTY
Probability
SciTegic.value.DoubleValue
1.21

@<SCITEGIC>MOL_PROPERTY
Sum Probability
SciTegic.value.DoubleValue
61.99

@<SCITEGIC>MOL_PROPERTY
Delta G
SciTegic.value.DoubleValue
1.082

@<SCITEGIC>MOL_PROPERTY
G
SciTegic.value.DoubleValue
49.343

@<SCITEGIC>MOL_PROPERTY
E
SciTegic.value.DoubleValue
16.780

@<SCITEGIC>MOL_PROPERTY
-TS
SciTegic.value.DoubleValue
32.563

@<SCITEGIC>MOL_PROPERTY
U+W
SciTegic.value.DoubleValue
-4.682

@<SCITEGIC>MOL_PROPERTY
U
SciTegic.value.DoubleValue
48.658

@<SCITEGIC>MOL_PROPERTY
W
SciTegic.value.DoubleValue
-53.340

@<SCITEGIC>MOL_PROPERTY
W(PB)
SciTegic.value.DoubleValue
-55.670

@<SCITEGIC>MOL_PROPERTY
W(SA)
SciTegic.value.DoubleValue
2.330

@<SCITEGIC>MOL_PROPERTY
Valence
SciTegic.value.DoubleValue
2.963

@<SCITEGIC>MOL_PROPERTY
Coulomb
SciTegic.value.DoubleValue
44.927

@<SCITEGIC>MOL_PROPERTY
VdW
SciTegic.value.DoubleValue
0.768

@<SCITEGIC>MOL_PROPERTY
VdW6
SciTegic.value.DoubleValue
-6.995

@<SCITEGIC>MOL_PROPERTY
VdW12
SciTegic.value.DoubleValue
7.762

@<SCITEGIC>MOL_PROPERTY
Bond
SciTegic.value.DoubleValue
0.186

@<SCITEGIC>MOL_PROPERTY
Angle
SciTegic.value.DoubleValue
0.758

@<SCITEGIC>MOL_PROPERTY
Pdih
SciTegic.value.DoubleValue
2.019

@<SCITEGIC>MOL_PROPERTY
Idih
SciTegic.value.DoubleValue
0.000

@<SCITEGIC>MOL_PROPERTY
Tether
SciTegic.value.DoubleValue
0.000

@<TRIPOS>MOLECULE
guest-s14_vm2.mol2 : vm2 ligand conformer 27
          26          25           1
SMALL
USER_CHARGES
 
@<TRIPOS>ATOM
       1    C1      20.938747   19.964279   19.806806 C.3        1 MOL1        -0.2400
       2    H1      21.482333   19.662071   18.902252 H          1 MOL1         0.0971
       3    H2      20.048070   20.524373   19.493401 H          1 MOL1         0.0971
       4    H3      21.585884   20.642658   20.377981 H          1 MOL1         0.0971
       5    C2      20.550169   18.729392   20.647157 C.3        1 MOL1        -0.1385
       6    H4      21.457987   18.171974   20.917460 H          1 MOL1         0.0960
       7    H5      19.932892   18.054058   20.038235 H          1 MOL1         0.0960
       8    C3      19.782269   19.127144   21.927119 C.3        1 MOL1        -0.1409
       9    H6      20.405712   19.808412   22.520904 H          1 MOL1         0.0960
      10    H7      18.874452   19.681669   21.652229 H          1 MOL1         0.0960
      11    C4      19.396917   17.890298   22.773567 C.3        1 MOL1        -0.1409
      12    H8      20.305207   17.358885   23.087956 H          1 MOL1         0.0960
      13    H9      18.837678   17.185634   22.142659 H          1 MOL1         0.0960
      14    C5      18.527279   18.232031   24.011144 C.3        1 MOL1        -0.1409
      15    H10     17.575959   18.666212   23.673904 H          1 MOL1         0.0960
      16    H11     18.266422   17.297489   24.526931 H          1 MOL1         0.0960
      17    C6      19.187989   19.196933   25.027022 C.3        1 MOL1        -0.1450
      18    H12     18.501214   19.346609   25.870687 H          1 MOL1         0.0960
      19    H13     19.331774   20.184120   24.569673 H          1 MOL1         0.0960
      20    C7      20.533343   18.670624   25.560527 C.3        1 MOL1         0.0172
      21    H14     20.387125   17.692176   26.025936 H          1 MOL1         0.0934
      22    H15     21.239025   18.557050   24.733432 H          1 MOL1         0.0934
      23    N1      21.164287   19.588300   26.587657 N.4        1 MOL1        -0.5956
      24    H16     22.058485   19.219704   26.929532 H          1 MOL1         0.3624
      25    H17     20.561528   19.715808   27.407164 H          1 MOL1         0.3624
      26    H18     21.352587   20.519980   26.203518 H          1 MOL1         0.3624
@<TRIPOS>BOND
    1     1     2    1
    2     1     3    1
    3     1     4    1
    4     1     5    1
    5     5     6    1
    6     5     7    1
    7     5     8    1
    8     8     9    1
    9     8    10    1
   10     8    11    1
   11    11    12    1
   12    11    13    1
   13    11    14    1
   14    14    15    1
   15    14    16    1
   16    14    17    1
   17    17    18    1
   18    17    19    1
   19    17    20    1
   20    20    21    1
   21    20    22    1
   22    20    23    1
   23    23    24    1
   24    23    25    1
   25    23    26    1
@<TRIPOS>SUBSTRUCTURE
       1 MOL1            1 RESIDUE      1      MOL     
@<SCITEGIC>MOL_PROPERTY
VM2 Rank
SciTegic.value.IntegerValue
27

@<SCITEGIC>MOL_PROPERTY
Conf_Id
SciTegic.value.IntegerValue
1189

@<SCITEGIC>MOL_PROPERTY
Probability
SciTegic.value.DoubleValue
1.21

@<SCITEGIC>MOL_PROPERTY
Sum Probability
SciTegic.value.DoubleValue
63.20

@<SCITEGIC>MOL_PROPERTY
Delta G
SciTegic.value.DoubleValue
1.083

@<SCITEGIC>MOL_PROPERTY
G
SciTegic.value.DoubleValue
49.345

@<SCITEGIC>MOL_PROPERTY
E
SciTegic.value.DoubleValue
16.654

@<SCITEGIC>MOL_PROPERTY
-TS
SciTegic.value.DoubleValue
32.691

@<SCITEGIC>MOL_PROPERTY
U+W
SciTegic.value.DoubleValue
-4.808

@<SCITEGIC>MOL_PROPERTY
U
SciTegic.value.DoubleValue
48.957

@<SCITEGIC>MOL_PROPERTY
W
SciTegic.value.DoubleValue
-53.765

@<SCITEGIC>MOL_PROPERTY
W(PB)
SciTegic.value.DoubleValue
-56.083

@<SCITEGIC>MOL_PROPERTY
W(SA)
SciTegic.value.DoubleValue
2.317

@<SCITEGIC>MOL_PROPERTY
Valence
SciTegic.value.DoubleValue
2.916

@<SCITEGIC>MOL_PROPERTY
Coulomb
SciTegic.value.DoubleValue
45.446

@<SCITEGIC>MOL_PROPERTY
VdW
SciTegic.value.DoubleValue
0.595

@<SCITEGIC>MOL_PROPERTY
VdW6
SciTegic.value.DoubleValue
-7.362

@<SCITEGIC>MOL_PROPERTY
VdW12
SciTegic.value.DoubleValue
7.957

@<SCITEGIC>MOL_PROPERTY
Bond
SciTegic.value.DoubleValue
0.196

@<SCITEGIC>MOL_PROPERTY
Angle
SciTegic.value.DoubleValue
0.889

@<SCITEGIC>MOL_PROPERTY
Pdih
SciTegic.value.DoubleValue
1.830

@<SCITEGIC>MOL_PROPERTY
Idih
SciTegic.value.DoubleValue
0.000

@<SCITEGIC>MOL_PROPERTY
Tether
SciTegic.value.DoubleValue
0.000

@<TRIPOS>MOLECULE
guest-s14_vm2.mol2 : vm2 ligand conformer 28
          26          25           1
SMALL
USER_CHARGES
 
@<TRIPOS>ATOM
       1    C1      18.853366   18.588338   19.736786 C.3        1 MOL1        -0.2400
       2    H1      17.949538   18.243774   20.256013 H          1 MOL1         0.0971
       3    H2      18.703150   19.636795   19.447988 H          1 MOL1         0.0971
       4    H3      18.959838   17.997596   18.817698 H          1 MOL1         0.0971
       5    C2      20.100951   18.432904   20.632052 C.3        1 MOL1        -0.1385
       6    H4      20.992020   18.752407   20.073654 H          1 MOL1         0.0960
       7    H5      20.244005   17.371074   20.876926 H          1 MOL1         0.0960
       8    C3      19.977233   19.255848   21.933451 C.3        1 MOL1        -0.1409
       9    H6      19.836997   20.316672   21.684090 H          1 MOL1         0.0960
      10    H7      19.079030   18.933448   22.476291 H          1 MOL1         0.0960
      11    C4      21.225108   19.096549   22.834667 C.3        1 MOL1        -0.1409
      12    H8      22.121321   19.351958   22.252505 H          1 MOL1         0.0960
      13    H9      21.342122   18.043181   23.122681 H          1 MOL1         0.0960
      14    C5      21.194721   19.992115   24.100245 C.3        1 MOL1        -0.1409
      15    H10     22.131586   19.847903   24.656068 H          1 MOL1         0.0960
      16    H11     21.184712   21.047396   23.794411 H          1 MOL1         0.0960
      17    C6      20.001856   19.733982   25.054198 C.3        1 MOL1        -0.1450
      18    H12     19.059797   20.004483   24.560503 H          1 MOL1         0.0960
      19    H13     20.094401   20.398129   25.923781 H          1 MOL1         0.0960
      20    C7      19.933000   18.274479   25.540731 C.3        1 MOL1         0.0172
      21    H14     19.799023   17.606659   24.685722 H          1 MOL1         0.0934
      22    H15     20.867640   18.009391   26.042248 H          1 MOL1         0.0934
      23    N1      18.794765   18.024785   26.508869 N.4        1 MOL1        -0.5956
      24    H16     18.766856   17.047717   26.820144 H          1 MOL1         0.3624
      25    H17     17.882812   18.230300   26.087979 H          1 MOL1         0.3624
      26    H18     18.875923   18.603779   27.351099 H          1 MOL1         0.3624
@<TRIPOS>BOND
    1     1     2    1
    2     1     3    1
    3     1     4    1
    4     1     5    1
    5     5     6    1
    6     5     7    1
    7     5     8    1
    8     8     9    1
    9     8    10    1
   10     8    11    1
   11    11    12    1
   12    11    13    1
   13    11    14    1
   14    14    15    1
   15    14    16    1
   16    14    17    1
   17    17    18    1
   18    17    19    1
   19    17    20    1
   20    20    21    1
   21    20    22    1
   22    20    23    1
   23    23    24    1
   24    23    25    1
   25    23    26    1
@<TRIPOS>SUBSTRUCTURE
       1 MOL1            1 RESIDUE      1      MOL     
@<SCITEGIC>MOL_PROPERTY
VM2 Rank
SciTegic.value.IntegerValue
28

@<SCITEGIC>MOL_PROPERTY
Conf_Id
SciTegic.value.IntegerValue
1192

@<SCITEGIC>MOL_PROPERTY
Probability
SciTegic.value.DoubleValue
1.20

@<SCITEGIC>MOL_PROPERTY
Sum Probability
SciTegic.value.DoubleValue
64.40

@<SCITEGIC>MOL_PROPERTY
Delta G
SciTegic.value.DoubleValue
1.088

@<SCITEGIC>MOL_PROPERTY
G
SciTegic.value.DoubleValue
49.349

@<SCITEGIC>MOL_PROPERTY
E
SciTegic.value.DoubleValue
16.658

@<SCITEGIC>MOL_PROPERTY
-TS
SciTegic.value.DoubleValue
32.690

@<SCITEGIC>MOL_PROPERTY
U+W
SciTegic.value.DoubleValue
-4.803

@<SCITEGIC>MOL_PROPERTY
U
SciTegic.value.DoubleValue
48.957

@<SCITEGIC>MOL_PROPERTY
W
SciTegic.value.DoubleValue
-53.760

@<SCITEGIC>MOL_PROPERTY
W(PB)
SciTegic.value.DoubleValue
-56.083

@<SCITEGIC>MOL_PROPERTY
W(SA)
SciTegic.value.DoubleValue
2.323

@<SCITEGIC>MOL_PROPERTY
Valence
SciTegic.value.DoubleValue
2.916

@<SCITEGIC>MOL_PROPERTY
Coulomb
SciTegic.value.DoubleValue
45.446

@<SCITEGIC>MOL_PROPERTY
VdW
SciTegic.value.DoubleValue
0.595

@<SCITEGIC>MOL_PROPERTY
VdW6
SciTegic.value.DoubleValue
-7.362

@<SCITEGIC>MOL_PROPERTY
VdW12
SciTegic.value.DoubleValue
7.957

@<SCITEGIC>MOL_PROPERTY
Bond
SciTegic.value.DoubleValue
0.196

@<SCITEGIC>MOL_PROPERTY
Angle
SciTegic.value.DoubleValue
0.889

@<SCITEGIC>MOL_PROPERTY
Pdih
SciTegic.value.DoubleValue
1.830

@<SCITEGIC>MOL_PROPERTY
Idih
SciTegic.value.DoubleValue
0.000

@<SCITEGIC>MOL_PROPERTY
Tether
SciTegic.value.DoubleValue
0.000

@<TRIPOS>MOLECULE
guest-s14_vm2.mol2 : vm2 ligand conformer 29
          26          25           1
SMALL
USER_CHARGES
 
@<TRIPOS>ATOM
       1    C1      21.144525   18.482319   19.875704 C.3        1 MOL1        -0.2400
       2    H1      21.765347   18.091608   20.691413 H          1 MOL1         0.0971
       3    H2      21.323147   17.852356   18.994697 H          1 MOL1         0.0971
       4    H3      21.487550   19.497521   19.637536 H          1 MOL1         0.0971
       5    C2      19.644987   18.475831   20.250000 C.3        1 MOL1        -0.1385
       6    H4      19.334074   17.455007   20.512675 H          1 MOL1         0.0960
       7    H5      19.057922   18.757645   19.364714 H          1 MOL1         0.0960
       8    C3      19.295212   19.443553   21.406257 C.3        1 MOL1        -0.1409
       9    H6      19.586767   20.466057   21.129240 H          1 MOL1         0.0960
      10    H7      18.203690   19.456651   21.531771 H          1 MOL1         0.0960
      11    C4      19.953869   19.059112   22.752826 C.3        1 MOL1        -0.1409
      12    H8      21.046639   19.114637   22.662685 H          1 MOL1         0.0960
      13    H9      19.704536   18.016622   22.991256 H          1 MOL1         0.0960
      14    C5      19.492573   19.988811   23.900866 C.3        1 MOL1        -0.1409
      15    H10     19.699757   21.032232   23.625586 H          1 MOL1         0.0960
      16    H11     18.403683   19.911051   24.026831 H          1 MOL1         0.0960
      17    C6      20.190045   19.683147   25.247235 C.3        1 MOL1        -0.1450
      18    H12     19.879807   20.432640   25.987472 H          1 MOL1         0.0960
      19    H13     21.277200   19.786681   25.131598 H          1 MOL1         0.0960
      20    C7      19.857821   18.278200   25.783945 C.3        1 MOL1         0.0172
      21    H14     18.775563   18.175280   25.900200 H          1 MOL1         0.0934
      22    H15     20.201950   17.520242   25.075592 H          1 MOL1         0.0934
      23    N1      20.501969   17.988026   27.124168 N.4        1 MOL1        -0.5956
      24    H16     20.268482   17.048594   27.463784 H          1 MOL1         0.3624
      25    H17     20.197836   18.650050   27.845584 H          1 MOL1         0.3624
      26    H18     21.524683   18.042543   27.076450 H          1 MOL1         0.3624
@<TRIPOS>BOND
    1     1     2    1
    2     1     3    1
    3     1     4    1
    4     1     5    1
    5     5     6    1
    6     5     7    1
    7     5     8    1
    8     8     9    1
    9     8    10    1
   10     8    11    1
   11    11    12    1
   12    11    13    1
   13    11    14    1
   14    14    15    1
   15    14    16    1
   16    14    17    1
   17    17    18    1
   18    17    19    1
   19    17    20    1
   20    20    21    1
   21    20    22    1
   22    20    23    1
   23    23    24    1
   24    23    25    1
   25    23    26    1
@<TRIPOS>SUBSTRUCTURE
       1 MOL1            1 RESIDUE      1      MOL     
@<SCITEGIC>MOL_PROPERTY
VM2 Rank
SciTegic.value.IntegerValue
29

@<SCITEGIC>MOL_PROPERTY
Conf_Id
SciTegic.value.IntegerValue
964

@<SCITEGIC>MOL_PROPERTY
Probability
SciTegic.value.DoubleValue
1.16

@<SCITEGIC>MOL_PROPERTY
Sum Probability
SciTegic.value.DoubleValue
65.55

@<SCITEGIC>MOL_PROPERTY
Delta G
SciTegic.value.DoubleValue
1.109

@<SCITEGIC>MOL_PROPERTY
G
SciTegic.value.DoubleValue
49.371

@<SCITEGIC>MOL_PROPERTY
E
SciTegic.value.DoubleValue
16.808

@<SCITEGIC>MOL_PROPERTY
-TS
SciTegic.value.DoubleValue
32.563

@<SCITEGIC>MOL_PROPERTY
U+W
SciTegic.value.DoubleValue
-4.654

@<SCITEGIC>MOL_PROPERTY
U
SciTegic.value.DoubleValue
48.658

@<SCITEGIC>MOL_PROPERTY
W
SciTegic.value.DoubleValue
-53.310

@<SCITEGIC>MOL_PROPERTY
W(PB)
SciTegic.value.DoubleValue
-55.636

@<SCITEGIC>MOL_PROPERTY
W(SA)
SciTegic.value.DoubleValue
2.326

@<SCITEGIC>MOL_PROPERTY
Valence
SciTegic.value.DoubleValue
2.963

@<SCITEGIC>MOL_PROPERTY
Coulomb
SciTegic.value.DoubleValue
44.927

@<SCITEGIC>MOL_PROPERTY
VdW
SciTegic.value.DoubleValue
0.768

@<SCITEGIC>MOL_PROPERTY
VdW6
SciTegic.value.DoubleValue
-6.995

@<SCITEGIC>MOL_PROPERTY
VdW12
SciTegic.value.DoubleValue
7.763

@<SCITEGIC>MOL_PROPERTY
Bond
SciTegic.value.DoubleValue
0.186

@<SCITEGIC>MOL_PROPERTY
Angle
SciTegic.value.DoubleValue
0.758

@<SCITEGIC>MOL_PROPERTY
Pdih
SciTegic.value.DoubleValue
2.019

@<SCITEGIC>MOL_PROPERTY
Idih
SciTegic.value.DoubleValue
0.000

@<SCITEGIC>MOL_PROPERTY
Tether
SciTegic.value.DoubleValue
0.000

@<TRIPOS>MOLECULE
guest-s14_vm2.mol2 : vm2 ligand conformer 30
          26          25           1
SMALL
USER_CHARGES
 
@<TRIPOS>ATOM
       1    C1      18.697210   18.516143   20.098688 C.3        1 MOL1        -0.2400
       2    H1      18.164500   19.475707   20.120562 H          1 MOL1         0.0971
       3    H2      18.422753   18.001067   19.169007 H          1 MOL1         0.0971
       4    H3      18.336530   17.902875   20.933688 H          1 MOL1         0.0971
       5    C2      20.226680   18.727746   20.168178 C.3        1 MOL1        -0.1385
       6    H4      20.555281   19.237499   19.251676 H          1 MOL1         0.0960
       7    H5      20.734653   17.753250   20.176726 H          1 MOL1         0.0960
       8    C3      20.677819   19.564059   21.390023 C.3        1 MOL1        -0.1409
       9    H6      21.755301   19.759331   21.299436 H          1 MOL1         0.0960
      10    H7      20.182968   20.544781   21.366108 H          1 MOL1         0.0960
      11    C4      20.401235   18.872883   22.746781 C.3        1 MOL1        -0.1409
      12    H8      20.856473   17.872936   22.747568 H          1 MOL1         0.0960
      13    H9      19.320506   18.732723   22.873775 H          1 MOL1         0.0960
      14    C5      20.960060   19.695806   23.932456 C.3        1 MOL1        -0.1409
      15    H10     22.034016   19.869361   23.777947 H          1 MOL1         0.0960
      16    H11     20.485018   20.686543   23.952439 H          1 MOL1         0.0960
      17    C6      20.762657   19.001379   25.300502 C.3        1 MOL1        -0.1450
      18    H12     21.260377   19.596983   26.077336 H          1 MOL1         0.0960
      19    H13     21.256851   18.020724   25.291309 H          1 MOL1         0.0960
      20    C7      19.277888   18.829686   25.672550 C.3        1 MOL1         0.0172
      21    H14     18.785838   19.805999   25.682265 H          1 MOL1         0.0934
      22    H15     18.780359   18.200366   24.930202 H          1 MOL1         0.0934
      23    N1      19.077451   18.191299   27.031822 N.4        1 MOL1        -0.5956
      24    H16     19.498532   18.749311   27.781840 H          1 MOL1         0.3624
      25    H17     19.495434   17.256346   27.080312 H          1 MOL1         0.3624
      26    H18     18.082968   18.086088   27.260558 H          1 MOL1         0.3624
@<TRIPOS>BOND
    1     1     2    1
    2     1     3    1
    3     1     4    1
    4     1     5    1
    5     5     6    1
    6     5     7    1
    7     5     8    1
    8     8     9    1
    9     8    10    1
   10     8    11    1
   11    11    12    1
   12    11    13    1
   13    11    14    1
   14    14    15    1
   15    14    16    1
   16    14    17    1
   17    17    18    1
   18    17    19    1
   19    17    20    1
   20    20    21    1
   21    20    22    1
   22    20    23    1
   23    23    24    1
   24    23    25    1
   25    23    26    1
@<TRIPOS>SUBSTRUCTURE
       1 MOL1            1 RESIDUE      1      MOL     
@<SCITEGIC>MOL_PROPERTY
VM2 Rank
SciTegic.value.IntegerValue
30

@<SCITEGIC>MOL_PROPERTY
Conf_Id
SciTegic.value.IntegerValue
1110

@<SCITEGIC>MOL_PROPERTY
Probability
SciTegic.value.DoubleValue
1.13

@<SCITEGIC>MOL_PROPERTY
Sum Probability
SciTegic.value.DoubleValue
66.69

@<SCITEGIC>MOL_PROPERTY
Delta G
SciTegic.value.DoubleValue
1.121

@<SCITEGIC>MOL_PROPERTY
G
SciTegic.value.DoubleValue
49.383

@<SCITEGIC>MOL_PROPERTY
E
SciTegic.value.DoubleValue
16.822

@<SCITEGIC>MOL_PROPERTY
-TS
SciTegic.value.DoubleValue
32.561

@<SCITEGIC>MOL_PROPERTY
U+W
SciTegic.value.DoubleValue
-4.640

@<SCITEGIC>MOL_PROPERTY
U
SciTegic.value.DoubleValue
48.723

@<SCITEGIC>MOL_PROPERTY
W
SciTegic.value.DoubleValue
-53.363

@<SCITEGIC>MOL_PROPERTY
W(PB)
SciTegic.value.DoubleValue
-55.684

@<SCITEGIC>MOL_PROPERTY
W(SA)
SciTegic.value.DoubleValue
2.321

@<SCITEGIC>MOL_PROPERTY
Valence
SciTegic.value.DoubleValue
2.962

@<SCITEGIC>MOL_PROPERTY
Coulomb
SciTegic.value.DoubleValue
44.993

@<SCITEGIC>MOL_PROPERTY
VdW
SciTegic.value.DoubleValue
0.768

@<SCITEGIC>MOL_PROPERTY
VdW6
SciTegic.value.DoubleValue
-7.008

@<SCITEGIC>MOL_PROPERTY
VdW12
SciTegic.value.DoubleValue
7.776

@<SCITEGIC>MOL_PROPERTY
Bond
SciTegic.value.DoubleValue
0.188

@<SCITEGIC>MOL_PROPERTY
Angle
SciTegic.value.DoubleValue
0.756

@<SCITEGIC>MOL_PROPERTY
Pdih
SciTegic.value.DoubleValue
2.018

@<SCITEGIC>MOL_PROPERTY
Idih
SciTegic.value.DoubleValue
0.000

@<SCITEGIC>MOL_PROPERTY
Tether
SciTegic.value.DoubleValue
0.000

@<TRIPOS>MOLECULE
guest-s14_vm2.mol2 : vm2 ligand conformer 31
          26          25           1
SMALL
USER_CHARGES
 
@<TRIPOS>ATOM
       1    C1      19.488218   19.029645   19.218278 C.3        1 MOL1        -0.2400
       2    H1      19.939157   18.125872   18.788079 H          1 MOL1         0.0971
       3    H2      18.488806   19.148526   18.780008 H          1 MOL1         0.0971
       4    H3      20.094669   19.892616   18.913749 H          1 MOL1         0.0971
       5    C2      19.400500   18.928688   20.755925 C.3        1 MOL1        -0.1385
       6    H4      18.764380   18.075206   21.029097 H          1 MOL1         0.0960
       7    H5      18.908518   19.830200   21.144485 H          1 MOL1         0.0960
       8    C3      20.798756   18.764586   21.397116 C.3        1 MOL1        -0.1409
       9    H6      21.302928   17.902758   20.938411 H          1 MOL1         0.0960
      10    H7      21.417798   19.642355   21.165690 H          1 MOL1         0.0960
      11    C4      20.755274   18.549005   22.929822 C.3        1 MOL1        -0.1409
      12    H8      21.774041   18.330902   23.278885 H          1 MOL1         0.0960
      13    H9      20.154430   17.656965   23.152181 H          1 MOL1         0.0960
      14    C5      20.205553   19.770630   23.708937 C.3        1 MOL1        -0.1409
      15    H10     20.750811   20.672760   23.398978 H          1 MOL1         0.0960
      16    H11     19.151148   19.939211   23.453079 H          1 MOL1         0.0960
      17    C6      20.333558   19.615504   25.242524 C.3        1 MOL1        -0.1450
      18    H12     19.999828   20.544263   25.724155 H          1 MOL1         0.0960
      19    H13     21.389444   19.482720   25.513557 H          1 MOL1         0.0960
      20    C7      19.506151   18.437872   25.790946 C.3        1 MOL1         0.0172
      21    H14     18.454363   18.571400   25.523935 H          1 MOL1         0.0934
      22    H15     19.857475   17.501604   25.349663 H          1 MOL1         0.0934
      23    N1      19.592991   18.303071   27.297453 N.4        1 MOL1        -0.5956
      24    H16     20.556356   18.148244   27.612340 H          1 MOL1         0.3624
      25    H17     19.035630   17.513853   27.642223 H          1 MOL1         0.3624
      26    H18     19.250130   19.142182   27.776561 H          1 MOL1         0.3624
@<TRIPOS>BOND
    1     1     2    1
    2     1     3    1
    3     1     4    1
    4     1     5    1
    5     5     6    1
    6     5     7    1
    7     5     8    1
    8     8     9    1
    9     8    10    1
   10     8    11    1
   11    11    12    1
   12    11    13    1
   13    11    14    1
   14    14    15    1
   15    14    16    1
   16    14    17    1
   17    17    18    1
   18    17    19    1
   19    17    20    1
   20    20    21    1
   21    20    22    1
   22    20    23    1
   23    23    24    1
   24    23    25    1
   25    23    26    1
@<TRIPOS>SUBSTRUCTURE
       1 MOL1            1 RESIDUE      1      MOL     
@<SCITEGIC>MOL_PROPERTY
VM2 Rank
SciTegic.value.IntegerValue
31

@<SCITEGIC>MOL_PROPERTY
Conf_Id
SciTegic.value.IntegerValue
572

@<SCITEGIC>MOL_PROPERTY
Probability
SciTegic.value.DoubleValue
1.12

@<SCITEGIC>MOL_PROPERTY
Sum Probability
SciTegic.value.DoubleValue
67.80

@<SCITEGIC>MOL_PROPERTY
Delta G
SciTegic.value.DoubleValue
1.130

@<SCITEGIC>MOL_PROPERTY
G
SciTegic.value.DoubleValue
49.392

@<SCITEGIC>MOL_PROPERTY
E
SciTegic.value.DoubleValue
16.830

@<SCITEGIC>MOL_PROPERTY
-TS
SciTegic.value.DoubleValue
32.561

@<SCITEGIC>MOL_PROPERTY
U+W
SciTegic.value.DoubleValue
-4.632

@<SCITEGIC>MOL_PROPERTY
U
SciTegic.value.DoubleValue
48.732

@<SCITEGIC>MOL_PROPERTY
W
SciTegic.value.DoubleValue
-53.364

@<SCITEGIC>MOL_PROPERTY
W(PB)
SciTegic.value.DoubleValue
-55.692

@<SCITEGIC>MOL_PROPERTY
W(SA)
SciTegic.value.DoubleValue
2.328

@<SCITEGIC>MOL_PROPERTY
Valence
SciTegic.value.DoubleValue
2.987

@<SCITEGIC>MOL_PROPERTY
Coulomb
SciTegic.value.DoubleValue
45.003

@<SCITEGIC>MOL_PROPERTY
VdW
SciTegic.value.DoubleValue
0.742

@<SCITEGIC>MOL_PROPERTY
VdW6
SciTegic.value.DoubleValue
-7.035

@<SCITEGIC>MOL_PROPERTY
VdW12
SciTegic.value.DoubleValue
7.777

@<SCITEGIC>MOL_PROPERTY
Bond
SciTegic.value.DoubleValue
0.191

@<SCITEGIC>MOL_PROPERTY
Angle
SciTegic.value.DoubleValue
0.753

@<SCITEGIC>MOL_PROPERTY
Pdih
SciTegic.value.DoubleValue
2.043

@<SCITEGIC>MOL_PROPERTY
Idih
SciTegic.value.DoubleValue
0.000

@<SCITEGIC>MOL_PROPERTY
Tether
SciTegic.value.DoubleValue
0.000

@<TRIPOS>MOLECULE
guest-s14_vm2.mol2 : vm2 ligand conformer 32
          26          25           1
SMALL
USER_CHARGES
 
@<TRIPOS>ATOM
       1    C1      19.861251   19.087815   19.080409 C.3        1 MOL1        -0.2400
       2    H1      19.694204   18.254881   18.385170 H          1 MOL1         0.0971
       3    H2      18.996124   19.760476   19.014631 H          1 MOL1         0.0971
       4    H3      20.748531   19.637518   18.740135 H          1 MOL1         0.0971
       5    C2      20.049493   18.566028   20.520769 C.3        1 MOL1        -0.1385
       6    H4      20.902938   17.874249   20.548625 H          1 MOL1         0.0960
       7    H5      19.161183   17.988340   20.808202 H          1 MOL1         0.0960
       8    C3      20.282270   19.723772   21.520302 C.3        1 MOL1        -0.1409
       9    H6      21.123352   20.335571   21.165822 H          1 MOL1         0.0960
      10    H7      19.404809   20.384950   21.532879 H          1 MOL1         0.0960
      11    C4      20.595793   19.249180   22.960730 C.3        1 MOL1        -0.1409
      12    H8      20.878997   20.128632   23.553872 H          1 MOL1         0.0960
      13    H9      21.475014   18.590398   22.946782 H          1 MOL1         0.0960
      14    C5      19.409299   18.524042   23.645553 C.3        1 MOL1        -0.1409
      15    H10     18.523180   19.173782   23.638771 H          1 MOL1         0.0960
      16    H11     19.142966   17.627590   23.070985 H          1 MOL1         0.0960
      17    C6      19.719964   18.091428   25.097984 C.3        1 MOL1        -0.1450
      18    H12     20.600427   17.435152   25.107423 H          1 MOL1         0.0960
      19    H13     18.879800   17.495466   25.478665 H          1 MOL1         0.0960
      20    C7      19.953934   19.286968   26.040650 C.3        1 MOL1         0.0172
      21    H14     20.818081   19.863579   25.701140 H          1 MOL1         0.0934
      22    H15     19.077590   19.940647   26.030156 H          1 MOL1         0.0934
      23    N1      20.208995   18.869768   27.474603 N.4        1 MOL1        -0.5956
      24    H16     20.362009   19.679499   28.085602 H          1 MOL1         0.3624
      25    H17     21.038372   18.272663   27.557100 H          1 MOL1         0.3624
      26    H18     19.419636   18.345607   27.866234 H          1 MOL1         0.3624
@<TRIPOS>BOND
    1     1     2    1
    2     1     3    1
    3     1     4    1
    4     1     5    1
    5     5     6    1
    6     5     7    1
    7     5     8    1
    8     8     9    1
    9     8    10    1
   10     8    11    1
   11    11    12    1
   12    11    13    1
   13    11    14    1
   14    14    15    1
   15    14    16    1
   16    14    17    1
   17    17    18    1
   18    17    19    1
   19    17    20    1
   20    20    21    1
   21    20    22    1
   22    20    23    1
   23    23    24    1
   24    23    25    1
   25    23    26    1
@<TRIPOS>SUBSTRUCTURE
       1 MOL1            1 RESIDUE      1      MOL     
@<SCITEGIC>MOL_PROPERTY
VM2 Rank
SciTegic.value.IntegerValue
32

@<SCITEGIC>MOL_PROPERTY
Conf_Id
SciTegic.value.IntegerValue
835

@<SCITEGIC>MOL_PROPERTY
Probability
SciTegic.value.DoubleValue
1.09

@<SCITEGIC>MOL_PROPERTY
Sum Probability
SciTegic.value.DoubleValue
68.90

@<SCITEGIC>MOL_PROPERTY
Delta G
SciTegic.value.DoubleValue
1.144

@<SCITEGIC>MOL_PROPERTY
G
SciTegic.value.DoubleValue
49.405

@<SCITEGIC>MOL_PROPERTY
E
SciTegic.value.DoubleValue
16.884

@<SCITEGIC>MOL_PROPERTY
-TS
SciTegic.value.DoubleValue
32.521

@<SCITEGIC>MOL_PROPERTY
U+W
SciTegic.value.DoubleValue
-4.578

@<SCITEGIC>MOL_PROPERTY
U
SciTegic.value.DoubleValue
48.768

@<SCITEGIC>MOL_PROPERTY
W
SciTegic.value.DoubleValue
-53.346

@<SCITEGIC>MOL_PROPERTY
W(PB)
SciTegic.value.DoubleValue
-55.671

@<SCITEGIC>MOL_PROPERTY
W(SA)
SciTegic.value.DoubleValue
2.325

@<SCITEGIC>MOL_PROPERTY
Valence
SciTegic.value.DoubleValue
3.051

@<SCITEGIC>MOL_PROPERTY
Coulomb
SciTegic.value.DoubleValue
44.907

@<SCITEGIC>MOL_PROPERTY
VdW
SciTegic.value.DoubleValue
0.810

@<SCITEGIC>MOL_PROPERTY
VdW6
SciTegic.value.DoubleValue
-6.972

@<SCITEGIC>MOL_PROPERTY
VdW12
SciTegic.value.DoubleValue
7.782

@<SCITEGIC>MOL_PROPERTY
Bond
SciTegic.value.DoubleValue
0.197

@<SCITEGIC>MOL_PROPERTY
Angle
SciTegic.value.DoubleValue
0.815

@<SCITEGIC>MOL_PROPERTY
Pdih
SciTegic.value.DoubleValue
2.039

@<SCITEGIC>MOL_PROPERTY
Idih
SciTegic.value.DoubleValue
0.000

@<SCITEGIC>MOL_PROPERTY
Tether
SciTegic.value.DoubleValue
0.000

@<TRIPOS>MOLECULE
guest-s14_vm2.mol2 : vm2 ligand conformer 33
          26          25           1
SMALL
USER_CHARGES
 
@<TRIPOS>ATOM
       1    C1      20.308533   19.570471   19.245658 C.3        1 MOL1        -0.2400
       2    H1      19.291697   19.363787   18.887095 H          1 MOL1         0.0971
       3    H2      20.612838   20.548534   18.850909 H          1 MOL1         0.0971
       4    H3      20.980935   18.812701   18.822712 H          1 MOL1         0.0971
       5    C2      20.364464   19.563947   20.788082 C.3        1 MOL1        -0.1385
       6    H4      19.712173   20.359756   21.171426 H          1 MOL1         0.0960
       7    H5      21.385697   19.802637   21.116430 H          1 MOL1         0.0960
       8    C3      19.935460   18.195553   21.368279 C.3        1 MOL1        -0.1409
       9    H6      18.896768   17.980749   21.081522 H          1 MOL1         0.0960
      10    H7      20.549904   17.406407   20.913250 H          1 MOL1         0.0960
      11    C4      20.079240   18.103394   22.907235 C.3        1 MOL1        -0.1409
      12    H8      21.124281   18.296215   23.184548 H          1 MOL1         0.0960
      13    H9      19.862733   17.071080   23.215053 H          1 MOL1         0.0960
      14    C5      19.137321   19.066508   23.673251 C.3        1 MOL1        -0.1409
      15    H10     19.408996   20.109145   23.461703 H          1 MOL1         0.0960
      16    H11     18.108954   18.931423   23.310711 H          1 MOL1         0.0960
      17    C6      19.158043   18.840667   25.203252 C.3        1 MOL1        -0.1450
      18    H12     18.852205   17.810332   25.428774 H          1 MOL1         0.0960
      19    H13     18.413965   19.498956   25.671164 H          1 MOL1         0.0960
      20    C7      20.539225   19.118778   25.825486 C.3        1 MOL1         0.0172
      21    H14     21.281382   18.440084   25.397311 H          1 MOL1         0.0934
      22    H15     20.842612   20.145498   25.603707 H          1 MOL1         0.0934
      23    N1      20.558715   18.939682   27.329756 N.4        1 MOL1        -0.5956
      24    H16     19.900678   19.571084   27.798291 H          1 MOL1         0.3624
      25    H17     21.486529   19.129404   27.724154 H          1 MOL1         0.3624
      26    H18     20.307446   17.984281   27.604113 H          1 MOL1         0.3624
@<TRIPOS>BOND
    1     1     2    1
    2     1     3    1
    3     1     4    1
    4     1     5    1
    5     5     6    1
    6     5     7    1
    7     5     8    1
    8     8     9    1
    9     8    10    1
   10     8    11    1
   11    11    12    1
   12    11    13    1
   13    11    14    1
   14    14    15    1
   15    14    16    1
   16    14    17    1
   17    17    18    1
   18    17    19    1
   19    17    20    1
   20    20    21    1
   21    20    22    1
   22    20    23    1
   23    23    24    1
   24    23    25    1
   25    23    26    1
@<TRIPOS>SUBSTRUCTURE
       1 MOL1            1 RESIDUE      1      MOL     
@<SCITEGIC>MOL_PROPERTY
VM2 Rank
SciTegic.value.IntegerValue
33

@<SCITEGIC>MOL_PROPERTY
Conf_Id
SciTegic.value.IntegerValue
747

@<SCITEGIC>MOL_PROPERTY
Probability
SciTegic.value.DoubleValue
1.05

@<SCITEGIC>MOL_PROPERTY
Sum Probability
SciTegic.value.DoubleValue
69.94

@<SCITEGIC>MOL_PROPERTY
Delta G
SciTegic.value.DoubleValue
1.168

@<SCITEGIC>MOL_PROPERTY
G
SciTegic.value.DoubleValue
49.429

@<SCITEGIC>MOL_PROPERTY
E
SciTegic.value.DoubleValue
16.868

@<SCITEGIC>MOL_PROPERTY
-TS
SciTegic.value.DoubleValue
32.562

@<SCITEGIC>MOL_PROPERTY
U+W
SciTegic.value.DoubleValue
-4.594

@<SCITEGIC>MOL_PROPERTY
U
SciTegic.value.DoubleValue
48.732

@<SCITEGIC>MOL_PROPERTY
W
SciTegic.value.DoubleValue
-53.326

@<SCITEGIC>MOL_PROPERTY
W(PB)
SciTegic.value.DoubleValue
-55.661

@<SCITEGIC>MOL_PROPERTY
W(SA)
SciTegic.value.DoubleValue
2.334

@<SCITEGIC>MOL_PROPERTY
Valence
SciTegic.value.DoubleValue
2.987

@<SCITEGIC>MOL_PROPERTY
Coulomb
SciTegic.value.DoubleValue
45.003

@<SCITEGIC>MOL_PROPERTY
VdW
SciTegic.value.DoubleValue
0.742

@<SCITEGIC>MOL_PROPERTY
VdW6
SciTegic.value.DoubleValue
-7.035

@<SCITEGIC>MOL_PROPERTY
VdW12
SciTegic.value.DoubleValue
7.777

@<SCITEGIC>MOL_PROPERTY
Bond
SciTegic.value.DoubleValue
0.191

@<SCITEGIC>MOL_PROPERTY
Angle
SciTegic.value.DoubleValue
0.753

@<SCITEGIC>MOL_PROPERTY
Pdih
SciTegic.value.DoubleValue
2.043

@<SCITEGIC>MOL_PROPERTY
Idih
SciTegic.value.DoubleValue
0.000

@<SCITEGIC>MOL_PROPERTY
Tether
SciTegic.value.DoubleValue
0.000

@<TRIPOS>MOLECULE
guest-s14_vm2.mol2 : vm2 ligand conformer 34
          26          25           1
SMALL
USER_CHARGES
 
@<TRIPOS>ATOM
       1    C1      18.788098   18.680322   20.177764 C.3        1 MOL1        -0.2400
       2    H1      18.356736   18.246184   21.088342 H          1 MOL1         0.0971
       3    H2      17.974585   19.171605   19.628508 H          1 MOL1         0.0971
       4    H3      19.169348   17.862113   19.553159 H          1 MOL1         0.0971
       5    C2      19.906886   19.693643   20.509067 C.3        1 MOL1        -0.1385
       6    H4      19.507252   20.490687   21.150185 H          1 MOL1         0.0960
       7    H5      20.223616   20.186998   19.579572 H          1 MOL1         0.0960
       8    C3      21.149611   19.045489   21.171058 C.3        1 MOL1        -0.1409
       9    H6      21.603067   18.341041   20.460235 H          1 MOL1         0.0960
      10    H7      21.904640   19.824554   21.344647 H          1 MOL1         0.0960
      11    C4      20.878421   18.300758   22.503831 C.3        1 MOL1        -0.1409
      12    H8      21.826245   17.873311   22.858967 H          1 MOL1         0.0960
      13    H9      20.210542   17.447363   22.326610 H          1 MOL1         0.0960
      14    C5      20.288448   19.207350   23.610531 C.3        1 MOL1        -0.1409
      15    H10     20.936875   20.082982   23.752913 H          1 MOL1         0.0960
      16    H11     19.305033   19.584697   23.300182 H          1 MOL1         0.0960
      17    C6      20.138749   18.453696   24.950366 C.3        1 MOL1        -0.1450
      18    H12     21.118646   18.080697   25.277053 H          1 MOL1         0.0960
      19    H13     19.490253   17.578340   24.811454 H          1 MOL1         0.0960
      20    C7      19.546794   19.360851   26.043355 C.3        1 MOL1         0.0172
      21    H14     20.197814   20.225873   26.196262 H          1 MOL1         0.0934
      22    H15     18.563378   19.721468   25.729805 H          1 MOL1         0.0934
      23    N1      19.383993   18.656891   27.375027 N.4        1 MOL1        -0.5956
      24    H16     18.988458   19.278642   28.088760 H          1 MOL1         0.3624
      25    H17     20.279866   18.316420   27.739348 H          1 MOL1         0.3624
      26    H18     18.759082   17.847039   27.305380 H          1 MOL1         0.3624
@<TRIPOS>BOND
    1     1     2    1
    2     1     3    1
    3     1     4    1
    4     1     5    1
    5     5     6    1
    6     5     7    1
    7     5     8    1
    8     8     9    1
    9     8    10    1
   10     8    11    1
   11    11    12    1
   12    11    13    1
   13    11    14    1
   14    14    15    1
   15    14    16    1
   16    14    17    1
   17    17    18    1
   18    17    19    1
   19    17    20    1
   20    20    21    1
   21    20    22    1
   22    20    23    1
   23    23    24    1
   24    23    25    1
   25    23    26    1
@<TRIPOS>SUBSTRUCTURE
       1 MOL1            1 RESIDUE      1      MOL     
@<SCITEGIC>MOL_PROPERTY
VM2 Rank
SciTegic.value.IntegerValue
34

@<SCITEGIC>MOL_PROPERTY
Conf_Id
SciTegic.value.IntegerValue
1292

@<SCITEGIC>MOL_PROPERTY
Probability
SciTegic.value.DoubleValue
1.00

@<SCITEGIC>MOL_PROPERTY
Sum Probability
SciTegic.value.DoubleValue
70.94

@<SCITEGIC>MOL_PROPERTY
Delta G
SciTegic.value.DoubleValue
1.197

@<SCITEGIC>MOL_PROPERTY
G
SciTegic.value.DoubleValue
49.458

@<SCITEGIC>MOL_PROPERTY
E
SciTegic.value.DoubleValue
16.677

@<SCITEGIC>MOL_PROPERTY
-TS
SciTegic.value.DoubleValue
32.782

@<SCITEGIC>MOL_PROPERTY
U+W
SciTegic.value.DoubleValue
-4.785

@<SCITEGIC>MOL_PROPERTY
U
SciTegic.value.DoubleValue
48.494

@<SCITEGIC>MOL_PROPERTY
W
SciTegic.value.DoubleValue
-53.279

@<SCITEGIC>MOL_PROPERTY
W(PB)
SciTegic.value.DoubleValue
-55.569

@<SCITEGIC>MOL_PROPERTY
W(SA)
SciTegic.value.DoubleValue
2.290

@<SCITEGIC>MOL_PROPERTY
Valence
SciTegic.value.DoubleValue
3.117

@<SCITEGIC>MOL_PROPERTY
Coulomb
SciTegic.value.DoubleValue
44.693

@<SCITEGIC>MOL_PROPERTY
VdW
SciTegic.value.DoubleValue
0.684

@<SCITEGIC>MOL_PROPERTY
VdW6
SciTegic.value.DoubleValue
-7.347

@<SCITEGIC>MOL_PROPERTY
VdW12
SciTegic.value.DoubleValue
8.031

@<SCITEGIC>MOL_PROPERTY
Bond
SciTegic.value.DoubleValue
0.208

@<SCITEGIC>MOL_PROPERTY
Angle
SciTegic.value.DoubleValue
1.039

@<SCITEGIC>MOL_PROPERTY
Pdih
SciTegic.value.DoubleValue
1.870

@<SCITEGIC>MOL_PROPERTY
Idih
SciTegic.value.DoubleValue
0.000

@<SCITEGIC>MOL_PROPERTY
Tether
SciTegic.value.DoubleValue
0.000

@<TRIPOS>MOLECULE
guest-s14_vm2.mol2 : vm2 ligand conformer 35
          26          25           1
SMALL
USER_CHARGES
 
@<TRIPOS>ATOM
       1    C1      20.859010   20.047058   20.247209 C.3        1 MOL1        -0.2400
       2    H1      21.490386   19.393911   19.631000 H          1 MOL1         0.0971
       3    H2      20.752254   21.004768   19.721624 H          1 MOL1         0.0971
       4    H3      21.384523   20.244440   21.189852 H          1 MOL1         0.0971
       5    C2      19.473898   19.407894   20.494607 C.3        1 MOL1        -0.1385
       6    H4      18.939808   19.339723   19.536600 H          1 MOL1         0.0960
       7    H5      18.868408   20.069091   21.128815 H          1 MOL1         0.0960
       8    C3      19.551224   17.990626   21.117565 C.3        1 MOL1        -0.1409
       9    H6      18.531318   17.598319   21.231728 H          1 MOL1         0.0960
      10    H7      20.053741   17.318569   20.408370 H          1 MOL1         0.0960
      11    C4      20.279667   17.905572   22.483799 C.3        1 MOL1        -0.1409
      12    H8      21.333869   18.188615   22.364211 H          1 MOL1         0.0960
      13    H9      20.284124   16.855576   22.807361 H          1 MOL1         0.0960
      14    C5      19.626577   18.770508   23.588391 C.3        1 MOL1        -0.1409
      15    H10     19.679937   19.832090   23.312695 H          1 MOL1         0.0960
      16    H11     18.561218   18.515104   23.673489 H          1 MOL1         0.0960
      17    C6      20.315350   18.570223   24.956254 C.3        1 MOL1        -0.1450
      18    H12     21.380336   18.825609   24.874577 H          1 MOL1         0.0960
      19    H13     20.258544   17.513099   25.248342 H          1 MOL1         0.0960
      20    C7      19.663268   19.437735   26.047209 C.3        1 MOL1         0.0172
      21    H14     19.732161   20.492806   25.768742 H          1 MOL1         0.0934
      22    H15     18.606148   19.175492   26.143127 H          1 MOL1         0.0934
      23    N1      20.312006   19.269385   27.405966 N.4        1 MOL1        -0.5956
      24    H16     21.304343   19.526771   27.390258 H          1 MOL1         0.3624
      25    H17     20.256546   18.301127   27.738592 H          1 MOL1         0.3624
      26    H18     19.862770   19.855726   28.117883 H          1 MOL1         0.3624
@<TRIPOS>BOND
    1     1     2    1
    2     1     3    1
    3     1     4    1
    4     1     5    1
    5     5     6    1
    6     5     7    1
    7     5     8    1
    8     8     9    1
    9     8    10    1
   10     8    11    1
   11    11    12    1
   12    11    13    1
   13    11    14    1
   14    14    15    1
   15    14    16    1
   16    14    17    1
   17    17    18    1
   18    17    19    1
   19    17    20    1
   20    20    21    1
   21    20    22    1
   22    20    23    1
   23    23    24    1
   24    23    25    1
   25    23    26    1
@<TRIPOS>SUBSTRUCTURE
       1 MOL1            1 RESIDUE      1      MOL     
@<SCITEGIC>MOL_PROPERTY
VM2 Rank
SciTegic.value.IntegerValue
35

@<SCITEGIC>MOL_PROPERTY
Conf_Id
SciTegic.value.IntegerValue
187

@<SCITEGIC>MOL_PROPERTY
Probability
SciTegic.value.DoubleValue
0.94

@<SCITEGIC>MOL_PROPERTY
Sum Probability
SciTegic.value.DoubleValue
71.89

@<SCITEGIC>MOL_PROPERTY
Delta G
SciTegic.value.DoubleValue
1.231

@<SCITEGIC>MOL_PROPERTY
G
SciTegic.value.DoubleValue
49.493

@<SCITEGIC>MOL_PROPERTY
E
SciTegic.value.DoubleValue
16.710

@<SCITEGIC>MOL_PROPERTY
-TS
SciTegic.value.DoubleValue
32.782

@<SCITEGIC>MOL_PROPERTY
U+W
SciTegic.value.DoubleValue
-4.752

@<SCITEGIC>MOL_PROPERTY
U
SciTegic.value.DoubleValue
48.494

@<SCITEGIC>MOL_PROPERTY
W
SciTegic.value.DoubleValue
-53.245

@<SCITEGIC>MOL_PROPERTY
W(PB)
SciTegic.value.DoubleValue
-55.524

@<SCITEGIC>MOL_PROPERTY
W(SA)
SciTegic.value.DoubleValue
2.279

@<SCITEGIC>MOL_PROPERTY
Valence
SciTegic.value.DoubleValue
3.117

@<SCITEGIC>MOL_PROPERTY
Coulomb
SciTegic.value.DoubleValue
44.693

@<SCITEGIC>MOL_PROPERTY
VdW
SciTegic.value.DoubleValue
0.684

@<SCITEGIC>MOL_PROPERTY
VdW6
SciTegic.value.DoubleValue
-7.347

@<SCITEGIC>MOL_PROPERTY
VdW12
SciTegic.value.DoubleValue
8.031

@<SCITEGIC>MOL_PROPERTY
Bond
SciTegic.value.DoubleValue
0.208

@<SCITEGIC>MOL_PROPERTY
Angle
SciTegic.value.DoubleValue
1.039

@<SCITEGIC>MOL_PROPERTY
Pdih
SciTegic.value.DoubleValue
1.870

@<SCITEGIC>MOL_PROPERTY
Idih
SciTegic.value.DoubleValue
0.000

@<SCITEGIC>MOL_PROPERTY
Tether
SciTegic.value.DoubleValue
0.000

@<TRIPOS>MOLECULE
guest-s14_vm2.mol2 : vm2 ligand conformer 36
          26          25           1
SMALL
USER_CHARGES
 
@<TRIPOS>ATOM
       1    C1      20.114651   19.256116   19.089043 C.3        1 MOL1        -0.2400
       2    H1      19.277572   18.667911   18.690874 H          1 MOL1         0.0971
       3    H2      19.838849   20.317767   19.043488 H          1 MOL1         0.0971
       4    H3      20.977746   19.103434   18.428137 H          1 MOL1         0.0971
       5    C2      20.453283   18.832863   20.534216 C.3        1 MOL1        -0.1385
       6    H4      21.318975   19.412611   20.880495 H          1 MOL1         0.0960
       7    H5      20.752924   17.775585   20.543074 H          1 MOL1         0.0960
       8    C3      19.251878   19.043644   21.485958 C.3        1 MOL1        -0.1409
       9    H6      18.987877   20.109681   21.519452 H          1 MOL1         0.0960
      10    H7      18.376482   18.522771   21.073958 H          1 MOL1         0.0960
      11    C4      19.498018   18.524045   22.923943 C.3        1 MOL1        -0.1409
      12    H8      19.758692   17.457251   22.889014 H          1 MOL1         0.0960
      13    H9      18.551518   18.592119   23.476175 H          1 MOL1         0.0960
      14    C5      20.598127   19.306937   23.685138 C.3        1 MOL1        -0.1409
      15    H10     21.552898   19.215405   23.151539 H          1 MOL1         0.0960
      16    H11     20.349860   20.377253   23.699312 H          1 MOL1         0.0960
      17    C6      20.805545   18.806860   25.134317 C.3        1 MOL1        -0.1450
      18    H12     21.665381   19.331622   25.571665 H          1 MOL1         0.0960
      19    H13     21.061582   17.739000   25.123325 H          1 MOL1         0.0960
      20    C7      19.571758   19.035375   26.027755 C.3        1 MOL1         0.0172
      21    H14     19.316512   20.098456   26.037500 H          1 MOL1         0.0934
      22    H15     18.718346   18.479664   25.631057 H          1 MOL1         0.0934
      23    N1      19.787738   18.593159   27.460629 N.4        1 MOL1        -0.5956
      24    H16     20.561141   19.099335   27.904299 H          1 MOL1         0.3624
      25    H17     20.006151   17.593366   27.523199 H          1 MOL1         0.3624
      26    H18     18.955520   18.753769   28.038567 H          1 MOL1         0.3624
@<TRIPOS>BOND
    1     1     2    1
    2     1     3    1
    3     1     4    1
    4     1     5    1
    5     5     6    1
    6     5     7    1
    7     5     8    1
    8     8     9    1
    9     8    10    1
   10     8    11    1
   11    11    12    1
   12    11    13    1
   13    11    14    1
   14    14    15    1
   15    14    16    1
   16    14    17    1
   17    17    18    1
   18    17    19    1
   19    17    20    1
   20    20    21    1
   21    20    22    1
   22    20    23    1
   23    23    24    1
   24    23    25    1
   25    23    26    1
@<TRIPOS>SUBSTRUCTURE
       1 MOL1            1 RESIDUE      1      MOL     
@<SCITEGIC>MOL_PROPERTY
VM2 Rank
SciTegic.value.IntegerValue
36

@<SCITEGIC>MOL_PROPERTY
Conf_Id
SciTegic.value.IntegerValue
752

@<SCITEGIC>MOL_PROPERTY
Probability
SciTegic.value.DoubleValue
0.94

@<SCITEGIC>MOL_PROPERTY
Sum Probability
SciTegic.value.DoubleValue
72.82

@<SCITEGIC>MOL_PROPERTY
Delta G
SciTegic.value.DoubleValue
1.234

@<SCITEGIC>MOL_PROPERTY
G
SciTegic.value.DoubleValue
49.495

@<SCITEGIC>MOL_PROPERTY
E
SciTegic.value.DoubleValue
16.974

@<SCITEGIC>MOL_PROPERTY
-TS
SciTegic.value.DoubleValue
32.521

@<SCITEGIC>MOL_PROPERTY
U+W
SciTegic.value.DoubleValue
-4.488

@<SCITEGIC>MOL_PROPERTY
U
SciTegic.value.DoubleValue
48.768

@<SCITEGIC>MOL_PROPERTY
W
SciTegic.value.DoubleValue
-53.256

@<SCITEGIC>MOL_PROPERTY
W(PB)
SciTegic.value.DoubleValue
-55.600

@<SCITEGIC>MOL_PROPERTY
W(SA)
SciTegic.value.DoubleValue
2.345

@<SCITEGIC>MOL_PROPERTY
Valence
SciTegic.value.DoubleValue
3.051

@<SCITEGIC>MOL_PROPERTY
Coulomb
SciTegic.value.DoubleValue
44.907

@<SCITEGIC>MOL_PROPERTY
VdW
SciTegic.value.DoubleValue
0.810

@<SCITEGIC>MOL_PROPERTY
VdW6
SciTegic.value.DoubleValue
-6.973

@<SCITEGIC>MOL_PROPERTY
VdW12
SciTegic.value.DoubleValue
7.782

@<SCITEGIC>MOL_PROPERTY
Bond
SciTegic.value.DoubleValue
0.197

@<SCITEGIC>MOL_PROPERTY
Angle
SciTegic.value.DoubleValue
0.815

@<SCITEGIC>MOL_PROPERTY
Pdih
SciTegic.value.DoubleValue
2.039

@<SCITEGIC>MOL_PROPERTY
Idih
SciTegic.value.DoubleValue
0.000

@<SCITEGIC>MOL_PROPERTY
Tether
SciTegic.value.DoubleValue
0.000

@<TRIPOS>MOLECULE
guest-s14_vm2.mol2 : vm2 ligand conformer 37
          26          25           1
SMALL
USER_CHARGES
 
@<TRIPOS>ATOM
       1    C1      19.732255   17.949588   19.744290 C.3        1 MOL1        -0.2400
       2    H1      20.040897   16.991038   20.181246 H          1 MOL1         0.0971
       3    H2      18.683583   18.128265   20.012501 H          1 MOL1         0.0971
       4    H3      19.781615   17.852129   18.652050 H          1 MOL1         0.0971
       5    C2      20.644990   19.099778   20.226601 C.3        1 MOL1        -0.1385
       6    H4      20.300006   20.050415   19.796462 H          1 MOL1         0.0960
       7    H5      21.658945   18.935680   19.835768 H          1 MOL1         0.0960
       8    C3      20.719327   19.218580   21.767956 C.3        1 MOL1        -0.1409
       9    H6      21.094615   18.273686   22.182346 H          1 MOL1         0.0960
      10    H7      21.461319   19.987495   22.023562 H          1 MOL1         0.0960
      11    C4      19.362812   19.585815   22.420987 C.3        1 MOL1        -0.1409
      12    H8      18.642989   18.768915   22.278858 H          1 MOL1         0.0960
      13    H9      18.943524   20.461642   21.906924 H          1 MOL1         0.0960
      14    C5      19.473503   19.909083   23.931286 C.3        1 MOL1        -0.1409
      15    H10     20.171750   20.744609   24.079247 H          1 MOL1         0.0960
      16    H11     18.494120   20.259683   24.285652 H          1 MOL1         0.0960
      17    C6      19.915960   18.701396   24.790424 C.3        1 MOL1        -0.1450
      18    H12     20.927180   18.385007   24.505165 H          1 MOL1         0.0960
      19    H13     19.245883   17.851161   24.606034 H          1 MOL1         0.0960
      20    C7      19.903242   19.046388   26.290030 C.3        1 MOL1         0.0172
      21    H14     20.581467   19.882427   26.481120 H          1 MOL1         0.0934
      22    H15     18.895383   19.345391   26.590487 H          1 MOL1         0.0934
      23    N1      20.328912   17.888371   27.169425 N.4        1 MOL1        -0.5956
      24    H16     20.312874   18.139516   28.163966 H          1 MOL1         0.3624
      25    H17     21.281926   17.576335   26.955918 H          1 MOL1         0.3624
      26    H18     19.712951   17.076492   27.056872 H          1 MOL1         0.3624
@<TRIPOS>BOND
    1     1     2    1
    2     1     3    1
    3     1     4    1
    4     1     5    1
    5     5     6    1
    6     5     7    1
    7     5     8    1
    8     8     9    1
    9     8    10    1
   10     8    11    1
   11    11    12    1
   12    11    13    1
   13    11    14    1
   14    14    15    1
   15    14    16    1
   16    14    17    1
   17    17    18    1
   18    17    19    1
   19    17    20    1
   20    20    21    1
   21    20    22    1
   22    20    23    1
   23    23    24    1
   24    23    25    1
   25    23    26    1
@<TRIPOS>SUBSTRUCTURE
       1 MOL1            1 RESIDUE      1      MOL     
@<SCITEGIC>MOL_PROPERTY
VM2 Rank
SciTegic.value.IntegerValue
37

@<SCITEGIC>MOL_PROPERTY
Conf_Id
SciTegic.value.IntegerValue
1261

@<SCITEGIC>MOL_PROPERTY
Probability
SciTegic.value.DoubleValue
0.91

@<SCITEGIC>MOL_PROPERTY
Sum Probability
SciTegic.value.DoubleValue
73.74

@<SCITEGIC>MOL_PROPERTY
Delta G
SciTegic.value.DoubleValue
1.251

@<SCITEGIC>MOL_PROPERTY
G
SciTegic.value.DoubleValue
49.512

@<SCITEGIC>MOL_PROPERTY
E
SciTegic.value.DoubleValue
16.922

@<SCITEGIC>MOL_PROPERTY
-TS
SciTegic.value.DoubleValue
32.590

@<SCITEGIC>MOL_PROPERTY
U+W
SciTegic.value.DoubleValue
-4.539

@<SCITEGIC>MOL_PROPERTY
U
SciTegic.value.DoubleValue
48.768

@<SCITEGIC>MOL_PROPERTY
W
SciTegic.value.DoubleValue
-53.308

@<SCITEGIC>MOL_PROPERTY
W(PB)
SciTegic.value.DoubleValue
-55.646

@<SCITEGIC>MOL_PROPERTY
W(SA)
SciTegic.value.DoubleValue
2.338

@<SCITEGIC>MOL_PROPERTY
Valence
SciTegic.value.DoubleValue
3.172

@<SCITEGIC>MOL_PROPERTY
Coulomb
SciTegic.value.DoubleValue
44.791

@<SCITEGIC>MOL_PROPERTY
VdW
SciTegic.value.DoubleValue
0.806

@<SCITEGIC>MOL_PROPERTY
VdW6
SciTegic.value.DoubleValue
-7.081

@<SCITEGIC>MOL_PROPERTY
VdW12
SciTegic.value.DoubleValue
7.886

@<SCITEGIC>MOL_PROPERTY
Bond
SciTegic.value.DoubleValue
0.203

@<SCITEGIC>MOL_PROPERTY
Angle
SciTegic.value.DoubleValue
0.850

@<SCITEGIC>MOL_PROPERTY
Pdih
SciTegic.value.DoubleValue
2.119

@<SCITEGIC>MOL_PROPERTY
Idih
SciTegic.value.DoubleValue
0.000

@<SCITEGIC>MOL_PROPERTY
Tether
SciTegic.value.DoubleValue
0.000

@<TRIPOS>MOLECULE
guest-s14_vm2.mol2 : vm2 ligand conformer 38
          26          25           1
SMALL
USER_CHARGES
 
@<TRIPOS>ATOM
       1    C1      20.667980   20.261637   19.990368 C.3        1 MOL1        -0.2400
       2    H1      20.880616   19.620607   19.124877 H          1 MOL1         0.0971
       3    H2      20.176298   21.171595   19.622620 H          1 MOL1         0.0971
       4    H3      21.624608   20.554506   20.442358 H          1 MOL1         0.0971
       5    C2      19.771205   19.533393   21.013837 C.3        1 MOL1        -0.1385
       6    H4      18.811449   19.279677   20.542512 H          1 MOL1         0.0960
       7    H5      19.548357   20.218219   21.842847 H          1 MOL1         0.0960
       8    C3      20.445193   18.248581   21.550192 C.3        1 MOL1        -0.1409
       9    H6      20.727328   17.612634   20.699777 H          1 MOL1         0.0960
      10    H7      21.384507   18.505644   22.057279 H          1 MOL1         0.0960
      11    C4      19.538934   17.420420   22.497634 C.3        1 MOL1        -0.1409
      12    H8      20.081782   16.514889   22.801829 H          1 MOL1         0.0960
      13    H9      18.662873   17.069683   21.934856 H          1 MOL1         0.0960
      14    C5      19.049507   18.163112   23.767954 C.3        1 MOL1        -0.1409
      15    H10     18.399964   19.002511   23.486181 H          1 MOL1         0.0960
      16    H11     18.418000   17.475926   24.348096 H          1 MOL1         0.0960
      17    C6      20.198567   18.670665   24.670163 C.3        1 MOL1        -0.1450
      18    H12     20.795540   19.419720   24.134636 H          1 MOL1         0.0960
      19    H13     20.869432   17.837423   24.918106 H          1 MOL1         0.0960
      20    C7      19.657432   19.295833   25.967888 C.3        1 MOL1         0.0172
      21    H14     19.001392   20.136354   25.725838 H          1 MOL1         0.0934
      22    H15     19.075298   18.552756   26.519618 H          1 MOL1         0.0934
      23    N1      20.752182   19.805359   26.882963 N.4        1 MOL1        -0.5956
      24    H16     21.320987   20.529573   26.432276 H          1 MOL1         0.3624
      25    H17     21.389843   19.055581   27.170072 H          1 MOL1         0.3624
      26    H18     20.370003   20.217062   27.741367 H          1 MOL1         0.3624
@<TRIPOS>BOND
    1     1     2    1
    2     1     3    1
    3     1     4    1
    4     1     5    1
    5     5     6    1
    6     5     7    1
    7     5     8    1
    8     8     9    1
    9     8    10    1
   10     8    11    1
   11    11    12    1
   12    11    13    1
   13    11    14    1
   14    14    15    1
   15    14    16    1
   16    14    17    1
   17    17    18    1
   18    17    19    1
   19    17    20    1
   20    20    21    1
   21    20    22    1
   22    20    23    1
   23    23    24    1
   24    23    25    1
   25    23    26    1
@<TRIPOS>SUBSTRUCTURE
       1 MOL1            1 RESIDUE      1      MOL     
@<SCITEGIC>MOL_PROPERTY
VM2 Rank
SciTegic.value.IntegerValue
38

@<SCITEGIC>MOL_PROPERTY
Conf_Id
SciTegic.value.IntegerValue
1311

@<SCITEGIC>MOL_PROPERTY
Probability
SciTegic.value.DoubleValue
0.90

@<SCITEGIC>MOL_PROPERTY
Sum Probability
SciTegic.value.DoubleValue
74.64

@<SCITEGIC>MOL_PROPERTY
Delta G
SciTegic.value.DoubleValue
1.260

@<SCITEGIC>MOL_PROPERTY
G
SciTegic.value.DoubleValue
49.522

@<SCITEGIC>MOL_PROPERTY
E
SciTegic.value.DoubleValue
16.727

@<SCITEGIC>MOL_PROPERTY
-TS
SciTegic.value.DoubleValue
32.795

@<SCITEGIC>MOL_PROPERTY
U+W
SciTegic.value.DoubleValue
-4.735

@<SCITEGIC>MOL_PROPERTY
U
SciTegic.value.DoubleValue
48.910

@<SCITEGIC>MOL_PROPERTY
W
SciTegic.value.DoubleValue
-53.645

@<SCITEGIC>MOL_PROPERTY
W(PB)
SciTegic.value.DoubleValue
-55.959

@<SCITEGIC>MOL_PROPERTY
W(SA)
SciTegic.value.DoubleValue
2.314

@<SCITEGIC>MOL_PROPERTY
Valence
SciTegic.value.DoubleValue
3.149

@<SCITEGIC>MOL_PROPERTY
Coulomb
SciTegic.value.DoubleValue
45.131

@<SCITEGIC>MOL_PROPERTY
VdW
SciTegic.value.DoubleValue
0.630

@<SCITEGIC>MOL_PROPERTY
VdW6
SciTegic.value.DoubleValue
-7.453

@<SCITEGIC>MOL_PROPERTY
VdW12
SciTegic.value.DoubleValue
8.083

@<SCITEGIC>MOL_PROPERTY
Bond
SciTegic.value.DoubleValue
0.212

@<SCITEGIC>MOL_PROPERTY
Angle
SciTegic.value.DoubleValue
1.075

@<SCITEGIC>MOL_PROPERTY
Pdih
SciTegic.value.DoubleValue
1.862

@<SCITEGIC>MOL_PROPERTY
Idih
SciTegic.value.DoubleValue
0.000

@<SCITEGIC>MOL_PROPERTY
Tether
SciTegic.value.DoubleValue
0.000

@<TRIPOS>MOLECULE
guest-s14_vm2.mol2 : vm2 ligand conformer 39
          26          25           1
SMALL
USER_CHARGES
 
@<TRIPOS>ATOM
       1    C1      21.180087   18.901871   19.792722 C.3        1 MOL1        -0.2400
       2    H1      21.917264   18.225147   20.243969 H          1 MOL1         0.0971
       3    H2      21.300964   18.851514   18.702870 H          1 MOL1         0.0971
       4    H3      21.417848   19.926634   20.104013 H          1 MOL1         0.0971
       5    C2      19.741768   18.505712   20.196385 C.3        1 MOL1        -0.1385
       6    H4      19.510079   17.522339   19.763860 H          1 MOL1         0.0960
       7    H5      19.025886   19.212413   19.753854 H          1 MOL1         0.0960
       8    C3      19.531482   18.437280   21.728217 C.3        1 MOL1        -0.1409
       9    H6      18.521032   18.053468   21.925191 H          1 MOL1         0.0960
      10    H7      20.230922   17.705609   22.153456 H          1 MOL1         0.0960
      11    C4      19.699713   19.807491   22.432251 C.3        1 MOL1        -0.1409
      12    H8      19.085542   20.555156   21.911745 H          1 MOL1         0.0960
      13    H9      20.740098   20.148551   22.348898 H          1 MOL1         0.0960
      14    C5      19.289070   19.787686   23.925144 C.3        1 MOL1        -0.1409
      15    H10     19.337353   20.814462   24.313841 H          1 MOL1         0.0960
      16    H11     18.239898   19.473437   24.014768 H          1 MOL1         0.0960
      17    C6      20.182701   18.876857   24.799332 C.3        1 MOL1        -0.1450
      18    H12     21.235938   19.160625   24.672558 H          1 MOL1         0.0960
      19    H13     20.087342   17.832303   24.477065 H          1 MOL1         0.0960
      20    C7      19.801210   18.979191   26.286607 C.3        1 MOL1         0.0172
      21    H14     19.910455   20.013322   26.624387 H          1 MOL1         0.0934
      22    H15     18.757482   18.682091   26.420135 H          1 MOL1         0.0934
      23    N1      20.654969   18.102912   27.180342 N.4        1 MOL1        -0.5956
      24    H16     20.575272   17.111280   26.932347 H          1 MOL1         0.3624
      25    H17     20.384456   18.186637   28.166372 H          1 MOL1         0.3624
      26    H18     21.648295   18.350043   27.121581 H          1 MOL1         0.3624
@<TRIPOS>BOND
    1     1     2    1
    2     1     3    1
    3     1     4    1
    4     1     5    1
    5     5     6    1
    6     5     7    1
    7     5     8    1
    8     8     9    1
    9     8    10    1
   10     8    11    1
   11    11    12    1
   12    11    13    1
   13    11    14    1
   14    14    15    1
   15    14    16    1
   16    14    17    1
   17    17    18    1
   18    17    19    1
   19    17    20    1
   20    20    21    1
   21    20    22    1
   22    20    23    1
   23    23    24    1
   24    23    25    1
   25    23    26    1
@<TRIPOS>SUBSTRUCTURE
       1 MOL1            1 RESIDUE      1      MOL     
@<SCITEGIC>MOL_PROPERTY
VM2 Rank
SciTegic.value.IntegerValue
39

@<SCITEGIC>MOL_PROPERTY
Conf_Id
SciTegic.value.IntegerValue
1327

@<SCITEGIC>MOL_PROPERTY
Probability
SciTegic.value.DoubleValue
0.89

@<SCITEGIC>MOL_PROPERTY
Sum Probability
SciTegic.value.DoubleValue
75.52

@<SCITEGIC>MOL_PROPERTY
Delta G
SciTegic.value.DoubleValue
1.267

@<SCITEGIC>MOL_PROPERTY
G
SciTegic.value.DoubleValue
49.528

@<SCITEGIC>MOL_PROPERTY
E
SciTegic.value.DoubleValue
16.939

@<SCITEGIC>MOL_PROPERTY
-TS
SciTegic.value.DoubleValue
32.589

@<SCITEGIC>MOL_PROPERTY
U+W
SciTegic.value.DoubleValue
-4.523

@<SCITEGIC>MOL_PROPERTY
U
SciTegic.value.DoubleValue
48.768

@<SCITEGIC>MOL_PROPERTY
W
SciTegic.value.DoubleValue
-53.291

@<SCITEGIC>MOL_PROPERTY
W(PB)
SciTegic.value.DoubleValue
-55.604

@<SCITEGIC>MOL_PROPERTY
W(SA)
SciTegic.value.DoubleValue
2.313

@<SCITEGIC>MOL_PROPERTY
Valence
SciTegic.value.DoubleValue
3.172

@<SCITEGIC>MOL_PROPERTY
Coulomb
SciTegic.value.DoubleValue
44.791

@<SCITEGIC>MOL_PROPERTY
VdW
SciTegic.value.DoubleValue
0.805

@<SCITEGIC>MOL_PROPERTY
VdW6
SciTegic.value.DoubleValue
-7.080

@<SCITEGIC>MOL_PROPERTY
VdW12
SciTegic.value.DoubleValue
7.886

@<SCITEGIC>MOL_PROPERTY
Bond
SciTegic.value.DoubleValue
0.203

@<SCITEGIC>MOL_PROPERTY
Angle
SciTegic.value.DoubleValue
0.850

@<SCITEGIC>MOL_PROPERTY
Pdih
SciTegic.value.DoubleValue
2.120

@<SCITEGIC>MOL_PROPERTY
Idih
SciTegic.value.DoubleValue
0.000

@<SCITEGIC>MOL_PROPERTY
Tether
SciTegic.value.DoubleValue
0.000

@<TRIPOS>MOLECULE
guest-s14_vm2.mol2 : vm2 ligand conformer 40
          26          25           1
SMALL
USER_CHARGES
 
@<TRIPOS>ATOM
       1    C1      18.677518   18.946928   19.924202 C.3        1 MOL1        -0.2400
       2    H1      19.223607   18.526337   19.069744 H          1 MOL1         0.0971
       3    H2      18.013090   18.168818   20.322051 H          1 MOL1         0.0971
       4    H3      18.050593   19.767608   19.552097 H          1 MOL1         0.0971
       5    C2      19.650299   19.453567   21.010041 C.3        1 MOL1        -0.1385
       6    H4      19.069636   19.901851   21.827218 H          1 MOL1         0.0960
       7    H5      20.280845   20.250542   20.591844 H          1 MOL1         0.0960
       8    C3      20.542634   18.312898   21.553452 C.3        1 MOL1        -0.1409
       9    H6      19.915346   17.534881   22.008125 H          1 MOL1         0.0960
      10    H7      21.056236   17.830036   20.710664 H          1 MOL1         0.0960
      11    C4      21.614391   18.791326   22.566985 C.3        1 MOL1        -0.1409
      12    H8      22.305702   19.476035   22.056608 H          1 MOL1         0.0960
      13    H9      22.220106   17.927298   22.873199 H          1 MOL1         0.0960
      14    C5      21.064288   19.493819   23.835348 C.3        1 MOL1        -0.1409
      15    H10     21.916016   19.786214   24.465153 H          1 MOL1         0.0960
      16    H11     20.560257   20.429347   23.558522 H          1 MOL1         0.0960
      17    C6      20.105998   18.609474   24.666943 C.3        1 MOL1        -0.1450
      18    H12     20.597586   17.657811   24.908823 H          1 MOL1         0.0960
      19    H13     19.208871   18.371763   24.081362 H          1 MOL1         0.0960
      20    C7      19.682794   19.312464   25.968655 C.3        1 MOL1         0.0172
      21    H14     20.567830   19.538198   26.569659 H          1 MOL1         0.0934
      22    H15     19.178631   20.253285   25.731741 H          1 MOL1         0.0934
      23    N1      18.743077   18.478524   26.815373 N.4        1 MOL1        -0.5956
      24    H16     19.168941   17.588880   27.095346 H          1 MOL1         0.3624
      25    H17     17.875885   18.254500   26.316439 H          1 MOL1         0.3624
      26    H18     18.474282   18.965081   27.677597 H          1 MOL1         0.3624
@<TRIPOS>BOND
    1     1     2    1
    2     1     3    1
    3     1     4    1
    4     1     5    1
    5     5     6    1
    6     5     7    1
    7     5     8    1
    8     8     9    1
    9     8    10    1
   10     8    11    1
   11    11    12    1
   12    11    13    1
   13    11    14    1
   14    14    15    1
   15    14    16    1
   16    14    17    1
   17    17    18    1
   18    17    19    1
   19    17    20    1
   20    20    21    1
   21    20    22    1
   22    20    23    1
   23    23    24    1
   24    23    25    1
   25    23    26    1
@<TRIPOS>SUBSTRUCTURE
       1 MOL1            1 RESIDUE      1      MOL     
@<SCITEGIC>MOL_PROPERTY
VM2 Rank
SciTegic.value.IntegerValue
40

@<SCITEGIC>MOL_PROPERTY
Conf_Id
SciTegic.value.IntegerValue
152

@<SCITEGIC>MOL_PROPERTY
Probability
SciTegic.value.DoubleValue
0.86

@<SCITEGIC>MOL_PROPERTY
Sum Probability
SciTegic.value.DoubleValue
76.38

@<SCITEGIC>MOL_PROPERTY
Delta G
SciTegic.value.DoubleValue
1.288

@<SCITEGIC>MOL_PROPERTY
G
SciTegic.value.DoubleValue
49.550

@<SCITEGIC>MOL_PROPERTY
E
SciTegic.value.DoubleValue
16.754

@<SCITEGIC>MOL_PROPERTY
-TS
SciTegic.value.DoubleValue
32.795

@<SCITEGIC>MOL_PROPERTY
U+W
SciTegic.value.DoubleValue
-4.707

@<SCITEGIC>MOL_PROPERTY
U
SciTegic.value.DoubleValue
48.910

@<SCITEGIC>MOL_PROPERTY
W
SciTegic.value.DoubleValue
-53.618

@<SCITEGIC>MOL_PROPERTY
W(PB)
SciTegic.value.DoubleValue
-55.928

@<SCITEGIC>MOL_PROPERTY
W(SA)
SciTegic.value.DoubleValue
2.311

@<SCITEGIC>MOL_PROPERTY
Valence
SciTegic.value.DoubleValue
3.149

@<SCITEGIC>MOL_PROPERTY
Coulomb
SciTegic.value.DoubleValue
45.131

@<SCITEGIC>MOL_PROPERTY
VdW
SciTegic.value.DoubleValue
0.630

@<SCITEGIC>MOL_PROPERTY
VdW6
SciTegic.value.DoubleValue
-7.453

@<SCITEGIC>MOL_PROPERTY
VdW12
SciTegic.value.DoubleValue
8.083

@<SCITEGIC>MOL_PROPERTY
Bond
SciTegic.value.DoubleValue
0.212

@<SCITEGIC>MOL_PROPERTY
Angle
SciTegic.value.DoubleValue
1.075

@<SCITEGIC>MOL_PROPERTY
Pdih
SciTegic.value.DoubleValue
1.862

@<SCITEGIC>MOL_PROPERTY
Idih
SciTegic.value.DoubleValue
0.000

@<SCITEGIC>MOL_PROPERTY
Tether
SciTegic.value.DoubleValue
0.000

@<TRIPOS>MOLECULE
guest-s14_vm2.mol2 : vm2 ligand conformer 41
          26          25           1
SMALL
USER_CHARGES
 
@<TRIPOS>ATOM
       1    C1      19.845860   19.222040   19.327835 C.3        1 MOL1        -0.2400
       2    H1      18.798680   18.970155   19.535550 H          1 MOL1         0.0971
       3    H2      19.945806   20.315174   19.337023 H          1 MOL1         0.0971
       4    H3      20.072751   18.873091   18.312112 H          1 MOL1         0.0971
       5    C2      20.802811   18.567581   20.350150 C.3        1 MOL1        -0.1385
       6    H4      21.838047   18.741819   20.024966 H          1 MOL1         0.0960
       7    H5      20.659280   17.478022   20.346881 H          1 MOL1         0.0960
       8    C3      20.637652   19.113491   21.789308 C.3        1 MOL1        -0.1409
       9    H6      21.443264   18.693371   22.404797 H          1 MOL1         0.0960
      10    H7      20.784099   20.202336   21.787227 H          1 MOL1         0.0960
      11    C4      19.266284   18.770801   22.425335 C.3        1 MOL1        -0.1409
      12    H8      19.121116   17.681792   22.430110 H          1 MOL1         0.0960
      13    H9      18.462348   19.186830   21.804653 H          1 MOL1         0.0960
      14    C5      19.094469   19.323569   23.861883 C.3        1 MOL1        -0.1409
      15    H10     19.240409   20.412717   23.857571 H          1 MOL1         0.0960
      16    H11     18.055512   19.153594   24.177172 H          1 MOL1         0.0960
      17    C6      20.043029   18.673415   24.896550 C.3        1 MOL1        -0.1450
      18    H12     21.087169   18.904385   24.651607 H          1 MOL1         0.0960
      19    H13     19.935330   17.581129   24.861957 H          1 MOL1         0.0960
      20    C7      19.742447   19.171333   26.321275 C.3        1 MOL1         0.0172
      21    H14     19.863922   20.257061   26.364988 H          1 MOL1         0.0934
      22    H15     18.709305   18.929831   26.585382 H          1 MOL1         0.0934
      23    N1      20.648448   18.556769   27.368664 N.4        1 MOL1        -0.5956
      24    H16     21.635690   18.770837   27.193376 H          1 MOL1         0.3624
      25    H17     20.561385   17.535586   27.397595 H          1 MOL1         0.3624
      26    H18     20.430884   18.901592   28.310050 H          1 MOL1         0.3624
@<TRIPOS>BOND
    1     1     2    1
    2     1     3    1
    3     1     4    1
    4     1     5    1
    5     5     6    1
    6     5     7    1
    7     5     8    1
    8     8     9    1
    9     8    10    1
   10     8    11    1
   11    11    12    1
   12    11    13    1
   13    11    14    1
   14    14    15    1
   15    14    16    1
   16    14    17    1
   17    17    18    1
   18    17    19    1
   19    17    20    1
   20    20    21    1
   21    20    22    1
   22    20    23    1
   23    23    24    1
   24    23    25    1
   25    23    26    1
@<TRIPOS>SUBSTRUCTURE
       1 MOL1            1 RESIDUE      1      MOL     
@<SCITEGIC>MOL_PROPERTY
VM2 Rank
SciTegic.value.IntegerValue
41

@<SCITEGIC>MOL_PROPERTY
Conf_Id
SciTegic.value.IntegerValue
277

@<SCITEGIC>MOL_PROPERTY
Probability
SciTegic.value.DoubleValue
0.77

@<SCITEGIC>MOL_PROPERTY
Sum Probability
SciTegic.value.DoubleValue
77.15

@<SCITEGIC>MOL_PROPERTY
Delta G
SciTegic.value.DoubleValue
1.350

@<SCITEGIC>MOL_PROPERTY
G
SciTegic.value.DoubleValue
49.611

@<SCITEGIC>MOL_PROPERTY
E
SciTegic.value.DoubleValue
17.104

@<SCITEGIC>MOL_PROPERTY
-TS
SciTegic.value.DoubleValue
32.507

@<SCITEGIC>MOL_PROPERTY
U+W
SciTegic.value.DoubleValue
-4.358

@<SCITEGIC>MOL_PROPERTY
U
SciTegic.value.DoubleValue
48.901

@<SCITEGIC>MOL_PROPERTY
W
SciTegic.value.DoubleValue
-53.260

@<SCITEGIC>MOL_PROPERTY
W(PB)
SciTegic.value.DoubleValue
-55.569

@<SCITEGIC>MOL_PROPERTY
W(SA)
SciTegic.value.DoubleValue
2.309

@<SCITEGIC>MOL_PROPERTY
Valence
SciTegic.value.DoubleValue
3.277

@<SCITEGIC>MOL_PROPERTY
Coulomb
SciTegic.value.DoubleValue
44.745

@<SCITEGIC>MOL_PROPERTY
VdW
SciTegic.value.DoubleValue
0.880

@<SCITEGIC>MOL_PROPERTY
VdW6
SciTegic.value.DoubleValue
-6.990

@<SCITEGIC>MOL_PROPERTY
VdW12
SciTegic.value.DoubleValue
7.870

@<SCITEGIC>MOL_PROPERTY
Bond
SciTegic.value.DoubleValue
0.211

@<SCITEGIC>MOL_PROPERTY
Angle
SciTegic.value.DoubleValue
0.950

@<SCITEGIC>MOL_PROPERTY
Pdih
SciTegic.value.DoubleValue
2.115

@<SCITEGIC>MOL_PROPERTY
Idih
SciTegic.value.DoubleValue
0.000

@<SCITEGIC>MOL_PROPERTY
Tether
SciTegic.value.DoubleValue
0.000

@<TRIPOS>MOLECULE
guest-s14_vm2.mol2 : vm2 ligand conformer 42
          26          25           1
SMALL
USER_CHARGES
 
@<TRIPOS>ATOM
       1    C1      19.986822   19.314581   19.332488 C.3        1 MOL1        -0.2400
       2    H1      20.265508   18.999578   18.318562 H          1 MOL1         0.0971
       3    H2      18.943346   19.654160   19.303226 H          1 MOL1         0.0971
       4    H3      20.620243   20.170310   19.596464 H          1 MOL1         0.0971
       5    C2      20.163575   18.146141   20.328835 C.3        1 MOL1        -0.1385
       6    H4      21.220635   17.847815   20.365934 H          1 MOL1         0.0960
       7    H5      19.611648   17.274316   19.950530 H          1 MOL1         0.0960
       8    C3      19.659949   18.469250   21.756572 C.3        1 MOL1        -0.1409
       9    H6      18.602598   18.764608   21.714041 H          1 MOL1         0.0960
      10    H7      19.700244   17.544799   22.346574 H          1 MOL1         0.0960
      11    C4      20.484049   19.573862   22.466016 C.3        1 MOL1        -0.1409
      12    H8      20.446818   20.495392   21.871005 H          1 MOL1         0.0960
      13    H9      21.540977   19.277341   22.510917 H          1 MOL1         0.0960
      14    C5      19.977107   19.905593   23.891397 C.3        1 MOL1        -0.1409
      15    H10     20.526735   20.783073   24.259728 H          1 MOL1         0.0960
      16    H11     18.919676   20.201267   23.846949 H          1 MOL1         0.0960
      17    C6      20.153511   18.746242   24.900255 C.3        1 MOL1        -0.1450
      18    H12     21.200635   18.415482   24.904240 H          1 MOL1         0.0960
      19    H13     19.542646   17.885845   24.600028 H          1 MOL1         0.0960
      20    C7      19.747977   19.174943   26.321476 C.3        1 MOL1         0.0172
      21    H14     20.363208   20.020585   26.640600 H          1 MOL1         0.0934
      22    H15     18.701002   19.490047   26.326189 H          1 MOL1         0.0934
      23    N1      19.908010   18.068389   27.343961 N.4        1 MOL1        -0.5956
      24    H16     19.632947   18.375288   28.283428 H          1 MOL1         0.3624
      25    H17     20.878816   17.744906   27.408207 H          1 MOL1         0.3624
      26    H18     19.331886   17.251366   27.116476 H          1 MOL1         0.3624
@<TRIPOS>BOND
    1     1     2    1
    2     1     3    1
    3     1     4    1
    4     1     5    1
    5     5     6    1
    6     5     7    1
    7     5     8    1
    8     8     9    1
    9     8    10    1
   10     8    11    1
   11    11    12    1
   12    11    13    1
   13    11    14    1
   14    14    15    1
   15    14    16    1
   16    14    17    1
   17    17    18    1
   18    17    19    1
   19    17    20    1
   20    20    21    1
   21    20    22    1
   22    20    23    1
   23    23    24    1
   24    23    25    1
   25    23    26    1
@<TRIPOS>SUBSTRUCTURE
       1 MOL1            1 RESIDUE      1      MOL     
@<SCITEGIC>MOL_PROPERTY
VM2 Rank
SciTegic.value.IntegerValue
42

@<SCITEGIC>MOL_PROPERTY
Conf_Id
SciTegic.value.IntegerValue
766

@<SCITEGIC>MOL_PROPERTY
Probability
SciTegic.value.DoubleValue
0.76

@<SCITEGIC>MOL_PROPERTY
Sum Probability
SciTegic.value.DoubleValue
77.91

@<SCITEGIC>MOL_PROPERTY
Delta G
SciTegic.value.DoubleValue
1.363

@<SCITEGIC>MOL_PROPERTY
G
SciTegic.value.DoubleValue
49.625

@<SCITEGIC>MOL_PROPERTY
E
SciTegic.value.DoubleValue
17.117

@<SCITEGIC>MOL_PROPERTY
-TS
SciTegic.value.DoubleValue
32.508

@<SCITEGIC>MOL_PROPERTY
U+W
SciTegic.value.DoubleValue
-4.345

@<SCITEGIC>MOL_PROPERTY
U
SciTegic.value.DoubleValue
48.901

@<SCITEGIC>MOL_PROPERTY
W
SciTegic.value.DoubleValue
-53.246

@<SCITEGIC>MOL_PROPERTY
W(PB)
SciTegic.value.DoubleValue
-55.588

@<SCITEGIC>MOL_PROPERTY
W(SA)
SciTegic.value.DoubleValue
2.342

@<SCITEGIC>MOL_PROPERTY
Valence
SciTegic.value.DoubleValue
3.277

@<SCITEGIC>MOL_PROPERTY
Coulomb
SciTegic.value.DoubleValue
44.745

@<SCITEGIC>MOL_PROPERTY
VdW
SciTegic.value.DoubleValue
0.880

@<SCITEGIC>MOL_PROPERTY
VdW6
SciTegic.value.DoubleValue
-6.990

@<SCITEGIC>MOL_PROPERTY
VdW12
SciTegic.value.DoubleValue
7.870

@<SCITEGIC>MOL_PROPERTY
Bond
SciTegic.value.DoubleValue
0.211

@<SCITEGIC>MOL_PROPERTY
Angle
SciTegic.value.DoubleValue
0.950

@<SCITEGIC>MOL_PROPERTY
Pdih
SciTegic.value.DoubleValue
2.115

@<SCITEGIC>MOL_PROPERTY
Idih
SciTegic.value.DoubleValue
0.000

@<SCITEGIC>MOL_PROPERTY
Tether
SciTegic.value.DoubleValue
0.000

@<TRIPOS>MOLECULE
guest-s14_vm2.mol2 : vm2 ligand conformer 43
          26          25           1
SMALL
USER_CHARGES
 
@<TRIPOS>ATOM
       1    C1      20.706282   19.737811   19.874797 C.3        1 MOL1        -0.2400
       2    H1      21.134511   20.429591   20.610676 H          1 MOL1         0.0971
       3    H2      21.382395   19.716103   19.010317 H          1 MOL1         0.0971
       4    H3      19.744065   20.145108   19.538244 H          1 MOL1         0.0971
       5    C2      20.534126   18.318714   20.462390 C.3        1 MOL1        -0.1385
       6    H4      21.504602   17.946172   20.818943 H          1 MOL1         0.0960
       7    H5      20.220316   17.638318   19.658418 H          1 MOL1         0.0960
       8    C3      19.493955   18.248490   21.606428 C.3        1 MOL1        -0.1409
       9    H6      18.520123   18.599839   21.238391 H          1 MOL1         0.0960
      10    H7      19.356252   17.195419   21.888129 H          1 MOL1         0.0960
      11    C4      19.901391   19.058138   22.860693 C.3        1 MOL1        -0.1409
      12    H8      19.968753   20.124963   22.610364 H          1 MOL1         0.0960
      13    H9      20.901661   18.741482   23.184448 H          1 MOL1         0.0960
      14    C5      18.887710   18.872555   24.015226 C.3        1 MOL1        -0.1409
      15    H10     17.884274   19.144969   23.659888 H          1 MOL1         0.0960
      16    H11     18.833977   17.812293   24.296319 H          1 MOL1         0.0960
      17    C6      19.218938   19.731745   25.261256 C.3        1 MOL1        -0.1450
      18    H12     18.440340   19.584075   26.021372 H          1 MOL1         0.0960
      19    H13     19.181944   20.794684   24.988030 H          1 MOL1         0.0960
      20    C7      20.596657   19.429220   25.884808 C.3        1 MOL1         0.0172
      21    H14     21.384411   19.617229   25.150812 H          1 MOL1         0.0934
      22    H15     20.762520   20.092932   26.737731 H          1 MOL1         0.0934
      23    N1      20.741940   18.002327   26.375402 N.4        1 MOL1        -0.5956
      24    H16     21.664517   17.834074   26.790985 H          1 MOL1         0.3624
      25    H17     20.627019   17.327692   25.612735 H          1 MOL1         0.3624
      26    H18     20.044490   17.773394   27.090985 H          1 MOL1         0.3624
@<TRIPOS>BOND
    1     1     2    1
    2     1     3    1
    3     1     4    1
    4     1     5    1
    5     5     6    1
    6     5     7    1
    7     5     8    1
    8     8     9    1
    9     8    10    1
   10     8    11    1
   11    11    12    1
   12    11    13    1
   13    11    14    1
   14    14    15    1
   15    14    16    1
   16    14    17    1
   17    17    18    1
   18    17    19    1
   19    17    20    1
   20    20    21    1
   21    20    22    1
   22    20    23    1
   23    23    24    1
   24    23    25    1
   25    23    26    1
@<TRIPOS>SUBSTRUCTURE
       1 MOL1            1 RESIDUE      1      MOL     
@<SCITEGIC>MOL_PROPERTY
VM2 Rank
SciTegic.value.IntegerValue
43

@<SCITEGIC>MOL_PROPERTY
Conf_Id
SciTegic.value.IntegerValue
853

@<SCITEGIC>MOL_PROPERTY
Probability
SciTegic.value.DoubleValue
0.64

@<SCITEGIC>MOL_PROPERTY
Sum Probability
SciTegic.value.DoubleValue
78.55

@<SCITEGIC>MOL_PROPERTY
Delta G
SciTegic.value.DoubleValue
1.463

@<SCITEGIC>MOL_PROPERTY
G
SciTegic.value.DoubleValue
49.725

@<SCITEGIC>MOL_PROPERTY
E
SciTegic.value.DoubleValue
16.974

@<SCITEGIC>MOL_PROPERTY
-TS
SciTegic.value.DoubleValue
32.751

@<SCITEGIC>MOL_PROPERTY
U+W
SciTegic.value.DoubleValue
-4.488

@<SCITEGIC>MOL_PROPERTY
U
SciTegic.value.DoubleValue
49.278

@<SCITEGIC>MOL_PROPERTY
W
SciTegic.value.DoubleValue
-53.765

@<SCITEGIC>MOL_PROPERTY
W(PB)
SciTegic.value.DoubleValue
-56.060

@<SCITEGIC>MOL_PROPERTY
W(SA)
SciTegic.value.DoubleValue
2.295

@<SCITEGIC>MOL_PROPERTY
Valence
SciTegic.value.DoubleValue
3.048

@<SCITEGIC>MOL_PROPERTY
Coulomb
SciTegic.value.DoubleValue
45.459

@<SCITEGIC>MOL_PROPERTY
VdW
SciTegic.value.DoubleValue
0.771

@<SCITEGIC>MOL_PROPERTY
VdW6
SciTegic.value.DoubleValue
-7.730

@<SCITEGIC>MOL_PROPERTY
VdW12
SciTegic.value.DoubleValue
8.501

@<SCITEGIC>MOL_PROPERTY
Bond
SciTegic.value.DoubleValue
0.210

@<SCITEGIC>MOL_PROPERTY
Angle
SciTegic.value.DoubleValue
0.867

@<SCITEGIC>MOL_PROPERTY
Pdih
SciTegic.value.DoubleValue
1.970

@<SCITEGIC>MOL_PROPERTY
Idih
SciTegic.value.DoubleValue
0.000

@<SCITEGIC>MOL_PROPERTY
Tether
SciTegic.value.DoubleValue
0.000

@<TRIPOS>MOLECULE
guest-s14_vm2.mol2 : vm2 ligand conformer 44
          26          25           1
SMALL
USER_CHARGES
 
@<TRIPOS>ATOM
       1    C1      19.149186   18.711967   19.822471 C.3        1 MOL1        -0.2400
       2    H1      18.311054   18.569923   20.515878 H          1 MOL1         0.0971
       3    H2      19.170007   19.766604   19.518616 H          1 MOL1         0.0971
       4    H3      18.943285   18.109104   18.928554 H          1 MOL1         0.0971
       5    C2      20.492207   18.290957   20.461050 C.3        1 MOL1        -0.1385
       6    H4      21.278028   18.334644   19.694002 H          1 MOL1         0.0960
       7    H5      20.435344   17.241846   20.783344 H          1 MOL1         0.0960
       8    C3      20.912716   19.183089   21.653935 C.3        1 MOL1        -0.1409
       9    H6      21.920563   18.884689   21.974058 H          1 MOL1         0.0960
      10    H7      20.990683   20.227285   21.321032 H          1 MOL1         0.0960
      11    C4      19.950445   19.090538   22.862313 C.3        1 MOL1        -0.1409
      12    H8      19.832456   18.037151   23.148810 H          1 MOL1         0.0960
      13    H9      18.956131   19.457800   22.576348 H          1 MOL1         0.0960
      14    C5      20.465822   19.912658   24.067898 C.3        1 MOL1        -0.1409
      15    H10     21.447447   19.534734   24.383559 H          1 MOL1         0.0960
      16    H11     20.626864   20.952499   23.751429 H          1 MOL1         0.0960
      17    C6      19.488654   19.909561   25.270244 C.3        1 MOL1        -0.1450
      18    H12     18.539825   20.371461   24.966546 H          1 MOL1         0.0960
      19    H13     19.895043   20.543007   26.069865 H          1 MOL1         0.0960
      20    C7      19.195787   18.505936   25.838147 C.3        1 MOL1         0.0172
      21    H14     18.481473   18.589528   26.661717 H          1 MOL1         0.0934
      22    H15     18.747514   17.879207   25.062959 H          1 MOL1         0.0934
      23    N1      20.426181   17.794294   26.364943 N.4        1 MOL1        -0.5956
      24    H16     20.877394   18.322514   27.118797 H          1 MOL1         0.3624
      25    H17     21.126300   17.656860   25.629454 H          1 MOL1         0.3624
      26    H18     20.198659   16.867977   26.742218 H          1 MOL1         0.3624
@<TRIPOS>BOND
    1     1     2    1
    2     1     3    1
    3     1     4    1
    4     1     5    1
    5     5     6    1
    6     5     7    1
    7     5     8    1
    8     8     9    1
    9     8    10    1
   10     8    11    1
   11    11    12    1
   12    11    13    1
   13    11    14    1
   14    14    15    1
   15    14    16    1
   16    14    17    1
   17    17    18    1
   18    17    19    1
   19    17    20    1
   20    20    21    1
   21    20    22    1
   22    20    23    1
   23    23    24    1
   24    23    25    1
   25    23    26    1
@<TRIPOS>SUBSTRUCTURE
       1 MOL1            1 RESIDUE      1      MOL     
@<SCITEGIC>MOL_PROPERTY
VM2 Rank
SciTegic.value.IntegerValue
44

@<SCITEGIC>MOL_PROPERTY
Conf_Id
SciTegic.value.IntegerValue
454

@<SCITEGIC>MOL_PROPERTY
Probability
SciTegic.value.DoubleValue
0.62

@<SCITEGIC>MOL_PROPERTY
Sum Probability
SciTegic.value.DoubleValue
79.17

@<SCITEGIC>MOL_PROPERTY
Delta G
SciTegic.value.DoubleValue
1.482

@<SCITEGIC>MOL_PROPERTY
G
SciTegic.value.DoubleValue
49.743

@<SCITEGIC>MOL_PROPERTY
E
SciTegic.value.DoubleValue
16.993

@<SCITEGIC>MOL_PROPERTY
-TS
SciTegic.value.DoubleValue
32.750

@<SCITEGIC>MOL_PROPERTY
U+W
SciTegic.value.DoubleValue
-4.469

@<SCITEGIC>MOL_PROPERTY
U
SciTegic.value.DoubleValue
49.278

@<SCITEGIC>MOL_PROPERTY
W
SciTegic.value.DoubleValue
-53.747

@<SCITEGIC>MOL_PROPERTY
W(PB)
SciTegic.value.DoubleValue
-56.035

@<SCITEGIC>MOL_PROPERTY
W(SA)
SciTegic.value.DoubleValue
2.288

@<SCITEGIC>MOL_PROPERTY
Valence
SciTegic.value.DoubleValue
3.047

@<SCITEGIC>MOL_PROPERTY
Coulomb
SciTegic.value.DoubleValue
45.459

@<SCITEGIC>MOL_PROPERTY
VdW
SciTegic.value.DoubleValue
0.771

@<SCITEGIC>MOL_PROPERTY
VdW6
SciTegic.value.DoubleValue
-7.730

@<SCITEGIC>MOL_PROPERTY
VdW12
SciTegic.value.DoubleValue
8.501

@<SCITEGIC>MOL_PROPERTY
Bond
SciTegic.value.DoubleValue
0.210

@<SCITEGIC>MOL_PROPERTY
Angle
SciTegic.value.DoubleValue
0.867

@<SCITEGIC>MOL_PROPERTY
Pdih
SciTegic.value.DoubleValue
1.970

@<SCITEGIC>MOL_PROPERTY
Idih
SciTegic.value.DoubleValue
0.000

@<SCITEGIC>MOL_PROPERTY
Tether
SciTegic.value.DoubleValue
0.000

@<TRIPOS>MOLECULE
guest-s14_vm2.mol2 : vm2 ligand conformer 45
          26          25           1
SMALL
USER_CHARGES
 
@<TRIPOS>ATOM
       1    C1      20.382611   19.910923   19.621970 C.3        1 MOL1        -0.2400
       2    H1      19.359636   19.803644   19.238244 H          1 MOL1         0.0971
       3    H2      20.492530   20.926830   20.023308 H          1 MOL1         0.0971
       4    H3      21.072933   19.806782   18.774834 H          1 MOL1         0.0971
       5    C2      20.683304   18.851535   20.703363 C.3        1 MOL1        -0.1385
       6    H4      21.722393   18.962692   21.043726 H          1 MOL1         0.0960
       7    H5      20.599378   17.847924   20.263359 H          1 MOL1         0.0960
       8    C3      19.724210   18.975508   21.907900 C.3        1 MOL1        -0.1409
       9    H6      19.810956   19.984440   22.332044 H          1 MOL1         0.0960
      10    H7      18.687089   18.861409   21.563602 H          1 MOL1         0.0960
      11    C4      20.027853   17.917159   22.995204 C.3        1 MOL1        -0.1409
      12    H8      21.050912   18.054776   23.369806 H          1 MOL1         0.0960
      13    H9      20.004690   16.918362   22.537840 H          1 MOL1         0.0960
      14    C5      19.022450   17.936703   24.175553 C.3        1 MOL1        -0.1409
      15    H10     18.018697   17.702074   23.795274 H          1 MOL1         0.0960
      16    H11     19.274422   17.123150   24.869004 H          1 MOL1         0.0960
      17    C6      18.959999   19.274678   24.958286 C.3        1 MOL1        -0.1450
      18    H12     18.259285   19.169392   25.797109 H          1 MOL1         0.0960
      19    H13     18.540978   20.059452   24.315644 H          1 MOL1         0.0960
      20    C7      20.324405   19.748796   25.497647 C.3        1 MOL1         0.0172
      21    H14     21.020262   19.890826   24.666658 H          1 MOL1         0.0934
      22    H15     20.200879   20.709041   26.005716 H          1 MOL1         0.0934
      23    N1      20.956167   18.783698   26.481078 N.4        1 MOL1        -0.5956
      24    H16     21.860169   19.125893   26.824256 H          1 MOL1         0.3624
      25    H17     21.122071   17.866495   26.055545 H          1 MOL1         0.3624
      26    H18     20.360949   18.633814   27.302108 H          1 MOL1         0.3624
@<TRIPOS>BOND
    1     1     2    1
    2     1     3    1
    3     1     4    1
    4     1     5    1
    5     5     6    1
    6     5     7    1
    7     5     8    1
    8     8     9    1
    9     8    10    1
   10     8    11    1
   11    11    12    1
   12    11    13    1
   13    11    14    1
   14    14    15    1
   15    14    16    1
   16    14    17    1
   17    17    18    1
   18    17    19    1
   19    17    20    1
   20    20    21    1
   21    20    22    1
   22    20    23    1
   23    23    24    1
   24    23    25    1
   25    23    26    1
@<TRIPOS>SUBSTRUCTURE
       1 MOL1            1 RESIDUE      1      MOL     
@<SCITEGIC>MOL_PROPERTY
VM2 Rank
SciTegic.value.IntegerValue
45

@<SCITEGIC>MOL_PROPERTY
Conf_Id
SciTegic.value.IntegerValue
141

@<SCITEGIC>MOL_PROPERTY
Probability
SciTegic.value.DoubleValue
0.61

@<SCITEGIC>MOL_PROPERTY
Sum Probability
SciTegic.value.DoubleValue
79.78

@<SCITEGIC>MOL_PROPERTY
Delta G
SciTegic.value.DoubleValue
1.491

@<SCITEGIC>MOL_PROPERTY
G
SciTegic.value.DoubleValue
49.753

@<SCITEGIC>MOL_PROPERTY
E
SciTegic.value.DoubleValue
16.852

@<SCITEGIC>MOL_PROPERTY
-TS
SciTegic.value.DoubleValue
32.901

@<SCITEGIC>MOL_PROPERTY
U+W
SciTegic.value.DoubleValue
-4.610

@<SCITEGIC>MOL_PROPERTY
U
SciTegic.value.DoubleValue
49.198

@<SCITEGIC>MOL_PROPERTY
W
SciTegic.value.DoubleValue
-53.807

@<SCITEGIC>MOL_PROPERTY
W(PB)
SciTegic.value.DoubleValue
-56.084

@<SCITEGIC>MOL_PROPERTY
W(SA)
SciTegic.value.DoubleValue
2.276

@<SCITEGIC>MOL_PROPERTY
Valence
SciTegic.value.DoubleValue
3.018

@<SCITEGIC>MOL_PROPERTY
Coulomb
SciTegic.value.DoubleValue
45.590

@<SCITEGIC>MOL_PROPERTY
VdW
SciTegic.value.DoubleValue
0.590

@<SCITEGIC>MOL_PROPERTY
VdW6
SciTegic.value.DoubleValue
-8.074

@<SCITEGIC>MOL_PROPERTY
VdW12
SciTegic.value.DoubleValue
8.663

@<SCITEGIC>MOL_PROPERTY
Bond
SciTegic.value.DoubleValue
0.222

@<SCITEGIC>MOL_PROPERTY
Angle
SciTegic.value.DoubleValue
0.958

@<SCITEGIC>MOL_PROPERTY
Pdih
SciTegic.value.DoubleValue
1.839

@<SCITEGIC>MOL_PROPERTY
Idih
SciTegic.value.DoubleValue
0.000

@<SCITEGIC>MOL_PROPERTY
Tether
SciTegic.value.DoubleValue
0.000

@<TRIPOS>MOLECULE
guest-s14_vm2.mol2 : vm2 ligand conformer 46
          26          25           1
SMALL
USER_CHARGES
 
@<TRIPOS>ATOM
       1    C1      19.387389   19.949271   20.201116 C.3        1 MOL1        -0.2400
       2    H1      19.465925   20.643081   21.047379 H          1 MOL1         0.0971
       3    H2      20.232381   20.133432   19.525083 H          1 MOL1         0.0971
       4    H3      18.464198   20.192139   19.659292 H          1 MOL1         0.0971
       5    C2      19.365966   18.478565   20.675271 C.3        1 MOL1        -0.1385
       6    H4      19.167124   17.830994   19.809949 H          1 MOL1         0.0960
       7    H5      18.525514   18.323607   21.364937 H          1 MOL1         0.0960
       8    C3      20.692558   18.024469   21.336054 C.3        1 MOL1        -0.1409
       9    H6      20.604631   16.965274   21.614444 H          1 MOL1         0.0960
      10    H7      21.495896   18.072543   20.588078 H          1 MOL1         0.0960
      11    C4      21.125174   18.838962   22.582613 C.3        1 MOL1        -0.1409
      12    H8      21.327171   19.880000   22.297698 H          1 MOL1         0.0960
      13    H9      22.080476   18.434423   22.944484 H          1 MOL1         0.0960
      14    C5      20.093417   18.801204   23.735263 C.3        1 MOL1        -0.1409
      15    H10     19.155640   19.272355   23.412275 H          1 MOL1         0.0960
      16    H11     19.860859   17.755895   23.978067 H          1 MOL1         0.0960
      17    C6      20.616328   19.531024   24.995047 C.3        1 MOL1        -0.1450
      18    H12     20.884134   20.563044   24.732022 H          1 MOL1         0.0960
      19    H13     21.535942   19.050481   25.354673 H          1 MOL1         0.0960
      20    C7      19.578515   19.571452   26.133268 C.3        1 MOL1         0.0172
      21    H14     19.970826   20.168907   26.960731 H          1 MOL1         0.0934
      22    H15     18.659483   20.044505   25.776893 H          1 MOL1         0.0934
      23    N1      19.221653   18.204052   26.682369 N.4        1 MOL1        -0.5956
      24    H16     18.812148   17.600894   25.962365 H          1 MOL1         0.3624
      25    H17     18.539198   18.266564   27.445689 H          1 MOL1         0.3624
      26    H18     20.043421   17.717103   27.054647 H          1 MOL1         0.3624
@<TRIPOS>BOND
    1     1     2    1
    2     1     3    1
    3     1     4    1
    4     1     5    1
    5     5     6    1
    6     5     7    1
    7     5     8    1
    8     8     9    1
    9     8    10    1
   10     8    11    1
   11    11    12    1
   12    11    13    1
   13    11    14    1
   14    14    15    1
   15    14    16    1
   16    14    17    1
   17    17    18    1
   18    17    19    1
   19    17    20    1
   20    20    21    1
   21    20    22    1
   22    20    23    1
   23    23    24    1
   24    23    25    1
   25    23    26    1
@<TRIPOS>SUBSTRUCTURE
       1 MOL1            1 RESIDUE      1      MOL     
@<SCITEGIC>MOL_PROPERTY
VM2 Rank
SciTegic.value.IntegerValue
46

@<SCITEGIC>MOL_PROPERTY
Conf_Id
SciTegic.value.IntegerValue
221

@<SCITEGIC>MOL_PROPERTY
Probability
SciTegic.value.DoubleValue
0.60

@<SCITEGIC>MOL_PROPERTY
Sum Probability
SciTegic.value.DoubleValue
80.38

@<SCITEGIC>MOL_PROPERTY
Delta G
SciTegic.value.DoubleValue
1.499

@<SCITEGIC>MOL_PROPERTY
G
SciTegic.value.DoubleValue
49.761

@<SCITEGIC>MOL_PROPERTY
E
SciTegic.value.DoubleValue
16.873

@<SCITEGIC>MOL_PROPERTY
-TS
SciTegic.value.DoubleValue
32.887

@<SCITEGIC>MOL_PROPERTY
U+W
SciTegic.value.DoubleValue
-4.589

@<SCITEGIC>MOL_PROPERTY
U
SciTegic.value.DoubleValue
49.147

@<SCITEGIC>MOL_PROPERTY
W
SciTegic.value.DoubleValue
-53.736

@<SCITEGIC>MOL_PROPERTY
W(PB)
SciTegic.value.DoubleValue
-56.022

@<SCITEGIC>MOL_PROPERTY
W(SA)
SciTegic.value.DoubleValue
2.286

@<SCITEGIC>MOL_PROPERTY
Valence
SciTegic.value.DoubleValue
3.219

@<SCITEGIC>MOL_PROPERTY
Coulomb
SciTegic.value.DoubleValue
45.149

@<SCITEGIC>MOL_PROPERTY
VdW
SciTegic.value.DoubleValue
0.779

@<SCITEGIC>MOL_PROPERTY
VdW6
SciTegic.value.DoubleValue
-7.884

@<SCITEGIC>MOL_PROPERTY
VdW12
SciTegic.value.DoubleValue
8.663

@<SCITEGIC>MOL_PROPERTY
Bond
SciTegic.value.DoubleValue
0.228

@<SCITEGIC>MOL_PROPERTY
Angle
SciTegic.value.DoubleValue
1.077

@<SCITEGIC>MOL_PROPERTY
Pdih
SciTegic.value.DoubleValue
1.914

@<SCITEGIC>MOL_PROPERTY
Idih
SciTegic.value.DoubleValue
0.000

@<SCITEGIC>MOL_PROPERTY
Tether
SciTegic.value.DoubleValue
0.000

@<TRIPOS>MOLECULE
guest-s14_vm2.mol2 : vm2 ligand conformer 47
          26          25           1
SMALL
USER_CHARGES
 
@<TRIPOS>ATOM
       1    C1      19.885759   19.748860   19.662998 C.3        1 MOL1        -0.2400
       2    H1      20.291919   20.714523   19.990925 H          1 MOL1         0.0971
       3    H2      19.967093   19.704367   18.569231 H          1 MOL1         0.0971
       4    H3      18.818598   19.720672   19.915859 H          1 MOL1         0.0971
       5    C2      20.653420   18.574256   20.310804 C.3        1 MOL1        -0.1385
       6    H4      21.686793   18.576641   19.936762 H          1 MOL1         0.0960
       7    H5      20.211836   17.621215   19.987614 H          1 MOL1         0.0960
       8    C3      20.684040   18.639834   21.856815 C.3        1 MOL1        -0.1409
       9    H6      21.329960   17.832239   22.227856 H          1 MOL1         0.0960
      10    H7      21.154883   19.582124   22.166387 H          1 MOL1         0.0960
      11    C4      19.282569   18.506359   22.504431 C.3        1 MOL1        -0.1409
      12    H8      18.778447   17.623026   22.088858 H          1 MOL1         0.0960
      13    H9      18.660905   19.371606   22.238887 H          1 MOL1         0.0960
      14    C5      19.328450   18.366706   24.045769 C.3        1 MOL1        -0.1409
      15    H10     18.309009   18.176402   24.409204 H          1 MOL1         0.0960
      16    H11     19.922361   17.482182   24.312110 H          1 MOL1         0.0960
      17    C6      19.891941   19.620348   24.760289 C.3        1 MOL1        -0.1450
      18    H12     19.346597   20.510066   24.418546 H          1 MOL1         0.0960
      19    H13     20.944961   19.773968   24.492481 H          1 MOL1         0.0960
      20    C7      19.769599   19.532132   26.293643 C.3        1 MOL1         0.0172
      21    H14     20.108718   20.471109   26.739589 H          1 MOL1         0.0934
      22    H15     18.722943   19.381150   26.571325 H          1 MOL1         0.0934
      23    N1      20.585222   18.410505   26.906249 N.4        1 MOL1        -0.5956
      24    H16     20.292771   17.493386   26.555083 H          1 MOL1         0.3624
      25    H17     20.491005   18.385122   27.927414 H          1 MOL1         0.3624
      26    H18     21.584497   18.509819   26.700049 H          1 MOL1         0.3624
@<TRIPOS>BOND
    1     1     2    1
    2     1     3    1
    3     1     4    1
    4     1     5    1
    5     5     6    1
    6     5     7    1
    7     5     8    1
    8     8     9    1
    9     8    10    1
   10     8    11    1
   11    11    12    1
   12    11    13    1
   13    11    14    1
   14    14    15    1
   15    14    16    1
   16    14    17    1
   17    17    18    1
   18    17    19    1
   19    17    20    1
   20    20    21    1
   21    20    22    1
   22    20    23    1
   23    23    24    1
   24    23    25    1
   25    23    26    1
@<TRIPOS>SUBSTRUCTURE
       1 MOL1            1 RESIDUE      1      MOL     
@<SCITEGIC>MOL_PROPERTY
VM2 Rank
SciTegic.value.IntegerValue
47

@<SCITEGIC>MOL_PROPERTY
Conf_Id
SciTegic.value.IntegerValue
1294

@<SCITEGIC>MOL_PROPERTY
Probability
SciTegic.value.DoubleValue
0.60

@<SCITEGIC>MOL_PROPERTY
Sum Probability
SciTegic.value.DoubleValue
80.98

@<SCITEGIC>MOL_PROPERTY
Delta G
SciTegic.value.DoubleValue
1.501

@<SCITEGIC>MOL_PROPERTY
G
SciTegic.value.DoubleValue
49.763

@<SCITEGIC>MOL_PROPERTY
E
SciTegic.value.DoubleValue
17.062

@<SCITEGIC>MOL_PROPERTY
-TS
SciTegic.value.DoubleValue
32.701

@<SCITEGIC>MOL_PROPERTY
U+W
SciTegic.value.DoubleValue
-4.400

@<SCITEGIC>MOL_PROPERTY
U
SciTegic.value.DoubleValue
49.228

@<SCITEGIC>MOL_PROPERTY
W
SciTegic.value.DoubleValue
-53.628

@<SCITEGIC>MOL_PROPERTY
W(PB)
SciTegic.value.DoubleValue
-55.903

@<SCITEGIC>MOL_PROPERTY
W(SA)
SciTegic.value.DoubleValue
2.275

@<SCITEGIC>MOL_PROPERTY
Valence
SciTegic.value.DoubleValue
3.267

@<SCITEGIC>MOL_PROPERTY
Coulomb
SciTegic.value.DoubleValue
45.067

@<SCITEGIC>MOL_PROPERTY
VdW
SciTegic.value.DoubleValue
0.893

@<SCITEGIC>MOL_PROPERTY
VdW6
SciTegic.value.DoubleValue
-7.615

@<SCITEGIC>MOL_PROPERTY
VdW12
SciTegic.value.DoubleValue
8.508

@<SCITEGIC>MOL_PROPERTY
Bond
SciTegic.value.DoubleValue
0.224

@<SCITEGIC>MOL_PROPERTY
Angle
SciTegic.value.DoubleValue
0.867

@<SCITEGIC>MOL_PROPERTY
Pdih
SciTegic.value.DoubleValue
2.176

@<SCITEGIC>MOL_PROPERTY
Idih
SciTegic.value.DoubleValue
0.000

@<SCITEGIC>MOL_PROPERTY
Tether
SciTegic.value.DoubleValue
0.000

@<TRIPOS>MOLECULE
guest-s14_vm2.mol2 : vm2 ligand conformer 48
          26          25           1
SMALL
USER_CHARGES
 
@<TRIPOS>ATOM
       1    C1      21.456036   18.705319   20.507594 C.3        1 MOL1        -0.2400
       2    H1      21.116228   17.970398   19.766400 H          1 MOL1         0.0971
       3    H2      22.364904   19.181052   20.117113 H          1 MOL1         0.0971
       4    H3      21.731851   18.168157   21.423599 H          1 MOL1         0.0971
       5    C2      20.364407   19.764855   20.779643 C.3        1 MOL1        -0.1385
       6    H4      20.207813   20.353946   19.865246 H          1 MOL1         0.0960
       7    H5      20.718908   20.476453   21.537205 H          1 MOL1         0.0960
       8    C3      19.006391   19.154536   21.211058 C.3        1 MOL1        -0.1409
       9    H6      18.283140   19.968655   21.356850 H          1 MOL1         0.0960
      10    H7      18.612239   18.547291   20.384601 H          1 MOL1         0.0960
      11    C4      19.047880   18.281952   22.492252 C.3        1 MOL1        -0.1409
      12    H8      19.679967   17.399926   22.324150 H          1 MOL1         0.0960
      13    H9      18.036123   17.896656   22.679487 H          1 MOL1         0.0960
      14    C5      19.536944   19.045697   23.746110 C.3        1 MOL1        -0.1409
      15    H10     20.572264   19.375869   23.594816 H          1 MOL1         0.0960
      16    H11     18.928301   19.949837   23.885516 H          1 MOL1         0.0960
      17    C6      19.456396   18.168665   25.017964 C.3        1 MOL1        -0.1450
      18    H12     20.082360   17.274308   24.898525 H          1 MOL1         0.0960
      19    H13     18.425586   17.814211   25.151035 H          1 MOL1         0.0960
      20    C7      19.878859   18.926186   26.291569 C.3        1 MOL1         0.0172
      21    H14     19.262931   19.821936   26.408470 H          1 MOL1         0.0934
      22    H15     19.718950   18.286352   27.163689 H          1 MOL1         0.0934
      23    N1      21.334087   19.351791   26.294811 N.4        1 MOL1        -0.5956
      24    H16     21.545589   19.987273   25.519404 H          1 MOL1         0.3624
      25    H17     21.965681   18.548696   26.210329 H          1 MOL1         0.3624
      26    H18     21.585497   19.840679   27.160906 H          1 MOL1         0.3624
@<TRIPOS>BOND
    1     1     2    1
    2     1     3    1
    3     1     4    1
    4     1     5    1
    5     5     6    1
    6     5     7    1
    7     5     8    1
    8     8     9    1
    9     8    10    1
   10     8    11    1
   11    11    12    1
   12    11    13    1
   13    11    14    1
   14    14    15    1
   15    14    16    1
   16    14    17    1
   17    17    18    1
   18    17    19    1
   19    17    20    1
   20    20    21    1
   21    20    22    1
   22    20    23    1
   23    23    24    1
   24    23    25    1
   25    23    26    1
@<TRIPOS>SUBSTRUCTURE
       1 MOL1            1 RESIDUE      1      MOL     
@<SCITEGIC>MOL_PROPERTY
VM2 Rank
SciTegic.value.IntegerValue
48

@<SCITEGIC>MOL_PROPERTY
Conf_Id
SciTegic.value.IntegerValue
155

@<SCITEGIC>MOL_PROPERTY
Probability
SciTegic.value.DoubleValue
0.59

@<SCITEGIC>MOL_PROPERTY
Sum Probability
SciTegic.value.DoubleValue
81.57

@<SCITEGIC>MOL_PROPERTY
Delta G
SciTegic.value.DoubleValue
1.506

@<SCITEGIC>MOL_PROPERTY
G
SciTegic.value.DoubleValue
49.768

@<SCITEGIC>MOL_PROPERTY
E
SciTegic.value.DoubleValue
16.878

@<SCITEGIC>MOL_PROPERTY
-TS
SciTegic.value.DoubleValue
32.890

@<SCITEGIC>MOL_PROPERTY
U+W
SciTegic.value.DoubleValue
-4.584

@<SCITEGIC>MOL_PROPERTY
U
SciTegic.value.DoubleValue
49.426

@<SCITEGIC>MOL_PROPERTY
W
SciTegic.value.DoubleValue
-54.010

@<SCITEGIC>MOL_PROPERTY
W(PB)
SciTegic.value.DoubleValue
-56.294

@<SCITEGIC>MOL_PROPERTY
W(SA)
SciTegic.value.DoubleValue
2.284

@<SCITEGIC>MOL_PROPERTY
Valence
SciTegic.value.DoubleValue
3.214

@<SCITEGIC>MOL_PROPERTY
Coulomb
SciTegic.value.DoubleValue
45.444

@<SCITEGIC>MOL_PROPERTY
VdW
SciTegic.value.DoubleValue
0.768

@<SCITEGIC>MOL_PROPERTY
VdW6
SciTegic.value.DoubleValue
-7.916

@<SCITEGIC>MOL_PROPERTY
VdW12
SciTegic.value.DoubleValue
8.684

@<SCITEGIC>MOL_PROPERTY
Bond
SciTegic.value.DoubleValue
0.230

@<SCITEGIC>MOL_PROPERTY
Angle
SciTegic.value.DoubleValue
1.078

@<SCITEGIC>MOL_PROPERTY
Pdih
SciTegic.value.DoubleValue
1.906

@<SCITEGIC>MOL_PROPERTY
Idih
SciTegic.value.DoubleValue
0.000

@<SCITEGIC>MOL_PROPERTY
Tether
SciTegic.value.DoubleValue
0.000

@<TRIPOS>MOLECULE
guest-s14_vm2.mol2 : vm2 ligand conformer 49
          26          25           1
SMALL
USER_CHARGES
 
@<TRIPOS>ATOM
       1    C1      19.471551   19.475805   19.649099 C.3        1 MOL1        -0.2400
       2    H1      18.409817   19.474222   19.927897 H          1 MOL1         0.0971
       3    H2      19.905461   20.436775   19.952121 H          1 MOL1         0.0971
       4    H3      19.531416   19.417076   18.554620 H          1 MOL1         0.0971
       5    C2      20.217847   18.287173   20.296280 C.3        1 MOL1        -0.1385
       6    H4      21.281702   18.326128   20.023457 H          1 MOL1         0.0960
       7    H5      19.826563   17.350747   19.874644 H          1 MOL1         0.0960
       8    C3      20.073516   18.237591   21.836441 C.3        1 MOL1        -0.1409
       9    H6      19.008659   18.167937   22.094639 H          1 MOL1         0.0960
      10    H7      20.543648   17.314191   22.201681 H          1 MOL1         0.0960
      11    C4      20.717198   19.451869   22.552365 C.3        1 MOL1        -0.1409
      12    H8      20.179615   20.372517   22.289602 H          1 MOL1         0.0960
      13    H9      21.745928   19.578663   22.188014 H          1 MOL1         0.0960
      14    C5      20.755619   19.307361   24.093457 C.3        1 MOL1        -0.1409
      15    H10     21.321993   18.404694   24.358904 H          1 MOL1         0.0960
      16    H11     21.314226   20.157265   24.509609 H          1 MOL1         0.0960
      17    C6      19.349600   19.262776   24.742150 C.3        1 MOL1        -0.1450
      18    H12     18.807070   18.364582   24.421090 H          1 MOL1         0.0960
      19    H13     18.762834   20.125159   24.398947 H          1 MOL1         0.0960
      20    C7      19.407305   19.293367   26.281517 C.3        1 MOL1         0.0172
      21    H14     19.944327   20.186526   26.612071 H          1 MOL1         0.0934
      22    H15     18.390948   19.338702   26.682157 H          1 MOL1         0.0934
      23    N1      20.088365   18.083057   26.889691 N.4        1 MOL1        -0.5956
      24    H16     20.101027   18.128206   27.914434 H          1 MOL1         0.3624
      25    H17     21.061943   18.000687   26.580959 H          1 MOL1         0.3624
      26    H18     19.614186   17.210825   26.634154 H          1 MOL1         0.3624
@<TRIPOS>BOND
    1     1     2    1
    2     1     3    1
    3     1     4    1
    4     1     5    1
    5     5     6    1
    6     5     7    1
    7     5     8    1
    8     8     9    1
    9     8    10    1
   10     8    11    1
   11    11    12    1
   12    11    13    1
   13    11    14    1
   14    14    15    1
   15    14    16    1
   16    14    17    1
   17    17    18    1
   18    17    19    1
   19    17    20    1
   20    20    21    1
   21    20    22    1
   22    20    23    1
   23    23    24    1
   24    23    25    1
   25    23    26    1
@<TRIPOS>SUBSTRUCTURE
       1 MOL1            1 RESIDUE      1      MOL     
@<SCITEGIC>MOL_PROPERTY
VM2 Rank
SciTegic.value.IntegerValue
49

@<SCITEGIC>MOL_PROPERTY
Conf_Id
SciTegic.value.IntegerValue
1102

@<SCITEGIC>MOL_PROPERTY
Probability
SciTegic.value.DoubleValue
0.59

@<SCITEGIC>MOL_PROPERTY
Sum Probability
SciTegic.value.DoubleValue
82.16

@<SCITEGIC>MOL_PROPERTY
Delta G
SciTegic.value.DoubleValue
1.514

@<SCITEGIC>MOL_PROPERTY
G
SciTegic.value.DoubleValue
49.775

@<SCITEGIC>MOL_PROPERTY
E
SciTegic.value.DoubleValue
17.074

@<SCITEGIC>MOL_PROPERTY
-TS
SciTegic.value.DoubleValue
32.701

@<SCITEGIC>MOL_PROPERTY
U+W
SciTegic.value.DoubleValue
-4.387

@<SCITEGIC>MOL_PROPERTY
U
SciTegic.value.DoubleValue
49.228

@<SCITEGIC>MOL_PROPERTY
W
SciTegic.value.DoubleValue
-53.616

@<SCITEGIC>MOL_PROPERTY
W(PB)
SciTegic.value.DoubleValue
-55.904

@<SCITEGIC>MOL_PROPERTY
W(SA)
SciTegic.value.DoubleValue
2.288

@<SCITEGIC>MOL_PROPERTY
Valence
SciTegic.value.DoubleValue
3.267

@<SCITEGIC>MOL_PROPERTY
Coulomb
SciTegic.value.DoubleValue
45.067

@<SCITEGIC>MOL_PROPERTY
VdW
SciTegic.value.DoubleValue
0.893

@<SCITEGIC>MOL_PROPERTY
VdW6
SciTegic.value.DoubleValue
-7.615

@<SCITEGIC>MOL_PROPERTY
VdW12
SciTegic.value.DoubleValue
8.509

@<SCITEGIC>MOL_PROPERTY
Bond
SciTegic.value.DoubleValue
0.224

@<SCITEGIC>MOL_PROPERTY
Angle
SciTegic.value.DoubleValue
0.867

@<SCITEGIC>MOL_PROPERTY
Pdih
SciTegic.value.DoubleValue
2.176

@<SCITEGIC>MOL_PROPERTY
Idih
SciTegic.value.DoubleValue
0.000

@<SCITEGIC>MOL_PROPERTY
Tether
SciTegic.value.DoubleValue
0.000

@<TRIPOS>MOLECULE
guest-s14_vm2.mol2 : vm2 ligand conformer 50
          26          25           1
SMALL
USER_CHARGES
 
@<TRIPOS>ATOM
       1    C1      18.670893   19.466541   20.286695 C.3        1 MOL1        -0.2400
       2    H1      18.046436   18.978708   21.045300 H          1 MOL1         0.0971
       3    H2      18.670638   20.546637   20.482653 H          1 MOL1         0.0971
       4    H3      18.193712   19.302230   19.311898 H          1 MOL1         0.0971
       5    C2      20.109714   18.901983   20.286177 C.3        1 MOL1        -0.1385
       6    H4      20.656877   19.328766   19.433971 H          1 MOL1         0.0960
       7    H5      20.080661   17.816042   20.119939 H          1 MOL1         0.0960
       8    C3      20.893381   19.212091   21.584432 C.3        1 MOL1        -0.1409
       9    H6      21.931424   18.876690   21.453023 H          1 MOL1         0.0960
      10    H7      20.936810   20.299507   21.735567 H          1 MOL1         0.0960
      11    C4      20.297863   18.533472   22.841274 C.3        1 MOL1        -0.1409
      12    H8      20.212717   17.451931   22.667771 H          1 MOL1         0.0960
      13    H9      19.282380   18.910364   23.015257 H          1 MOL1         0.0960
      14    C5      21.168102   18.787986   24.095462 C.3        1 MOL1        -0.1409
      15    H10     22.193027   18.444294   23.898729 H          1 MOL1         0.0960
      16    H11     21.239870   19.867390   24.284704 H          1 MOL1         0.0960
      17    C6      20.641469   18.064585   25.360383 C.3        1 MOL1        -0.1450
      18    H12     21.327265   18.251815   26.197300 H          1 MOL1         0.0960
      19    H13     20.656490   16.979957   25.189459 H          1 MOL1         0.0960
      20    C7      19.215181   18.480134   25.774671 C.3        1 MOL1         0.0172
      21    H14     18.514375   18.253802   24.967038 H          1 MOL1         0.0934
      22    H15     18.912451   17.908566   26.656243 H          1 MOL1         0.0934
      23    N1      19.084397   19.952208   26.111905 N.4        1 MOL1        -0.5956
      24    H16     19.326036   20.545340   25.312026 H          1 MOL1         0.3624
      25    H17     19.700064   20.220982   26.886261 H          1 MOL1         0.3624
      26    H18     18.127832   20.195970   26.390703 H          1 MOL1         0.3624
@<TRIPOS>BOND
    1     1     2    1
    2     1     3    1
    3     1     4    1
    4     1     5    1
    5     5     6    1
    6     5     7    1
    7     5     8    1
    8     8     9    1
    9     8    10    1
   10     8    11    1
   11    11    12    1
   12    11    13    1
   13    11    14    1
   14    14    15    1
   15    14    16    1
   16    14    17    1
   17    17    18    1
   18    17    19    1
   19    17    20    1
   20    20    21    1
   21    20    22    1
   22    20    23    1
   23    23    24    1
   24    23    25    1
   25    23    26    1
@<TRIPOS>SUBSTRUCTURE
       1 MOL1            1 RESIDUE      1      MOL     
@<SCITEGIC>MOL_PROPERTY
VM2 Rank
SciTegic.value.IntegerValue
50

@<SCITEGIC>MOL_PROPERTY
Conf_Id
SciTegic.value.IntegerValue
278

@<SCITEGIC>MOL_PROPERTY
Probability
SciTegic.value.DoubleValue
0.58

@<SCITEGIC>MOL_PROPERTY
Sum Probability
SciTegic.value.DoubleValue
82.74

@<SCITEGIC>MOL_PROPERTY
Delta G
SciTegic.value.DoubleValue
1.518

@<SCITEGIC>MOL_PROPERTY
G
SciTegic.value.DoubleValue
49.779

@<SCITEGIC>MOL_PROPERTY
E
SciTegic.value.DoubleValue
17.031

@<SCITEGIC>MOL_PROPERTY
-TS
SciTegic.value.DoubleValue
32.749

@<SCITEGIC>MOL_PROPERTY
U+W
SciTegic.value.DoubleValue
-4.431

@<SCITEGIC>MOL_PROPERTY
U
SciTegic.value.DoubleValue
49.413

@<SCITEGIC>MOL_PROPERTY
W
SciTegic.value.DoubleValue
-53.845

@<SCITEGIC>MOL_PROPERTY
W(PB)
SciTegic.value.DoubleValue
-56.139

@<SCITEGIC>MOL_PROPERTY
W(SA)
SciTegic.value.DoubleValue
2.294

@<SCITEGIC>MOL_PROPERTY
Valence
SciTegic.value.DoubleValue
3.043

@<SCITEGIC>MOL_PROPERTY
Coulomb
SciTegic.value.DoubleValue
45.606

@<SCITEGIC>MOL_PROPERTY
VdW
SciTegic.value.DoubleValue
0.764

@<SCITEGIC>MOL_PROPERTY
VdW6
SciTegic.value.DoubleValue
-7.758

@<SCITEGIC>MOL_PROPERTY
VdW12
SciTegic.value.DoubleValue
8.522

@<SCITEGIC>MOL_PROPERTY
Bond
SciTegic.value.DoubleValue
0.212

@<SCITEGIC>MOL_PROPERTY
Angle
SciTegic.value.DoubleValue
0.867

@<SCITEGIC>MOL_PROPERTY
Pdih
SciTegic.value.DoubleValue
1.964

@<SCITEGIC>MOL_PROPERTY
Idih
SciTegic.value.DoubleValue
0.000

@<SCITEGIC>MOL_PROPERTY
Tether
SciTegic.value.DoubleValue
0.000

@<TRIPOS>MOLECULE
guest-s14_vm2.mol2 : vm2 ligand conformer 51
          26          25           1
SMALL
USER_CHARGES
 
@<TRIPOS>ATOM
       1    C1      20.176277   20.461016   20.337198 C.3        1 MOL1        -0.2400
       2    H1      20.833493   20.820041   21.138806 H          1 MOL1         0.0971
       3    H2      20.559488   20.865082   19.391255 H          1 MOL1         0.0971
       4    H3      19.174472   20.879410   20.499498 H          1 MOL1         0.0971
       5    C2      20.132376   18.916838   20.287027 C.3        1 MOL1        -0.1385
       6    H4      21.149625   18.522151   20.155978 H          1 MOL1         0.0960
       7    H5      19.565889   18.607766   19.397445 H          1 MOL1         0.0960
       8    C3      19.480107   18.278411   21.537114 C.3        1 MOL1        -0.1409
       9    H6      18.456647   18.661071   21.652445 H          1 MOL1         0.0960
      10    H7      19.388291   17.196651   21.367819 H          1 MOL1         0.0960
      11    C4      20.278180   18.520366   22.840707 C.3        1 MOL1        -0.1409
      12    H8      20.321340   19.596396   23.050035 H          1 MOL1         0.0960
      13    H9      21.313521   18.178733   22.704908 H          1 MOL1         0.0960
      14    C5      19.644876   17.782263   24.044537 C.3        1 MOL1        -0.1409
      15    H10     18.616082   18.135057   24.196842 H          1 MOL1         0.0960
      16    H11     19.568342   16.711338   23.810956 H          1 MOL1         0.0960
      17    C6      20.456858   17.942769   25.354344 C.3        1 MOL1        -0.1450
      18    H12     21.455526   17.507424   25.216524 H          1 MOL1         0.0960
      19    H13     19.976957   17.360678   26.152258 H          1 MOL1         0.0960
      20    C7      20.614693   19.404093   25.821495 C.3        1 MOL1         0.0172
      21    H14     21.217201   19.430321   26.733526 H          1 MOL1         0.0934
      22    H15     21.135176   19.983648   25.054786 H          1 MOL1         0.0934
      23    N1      19.297632   20.093244   26.118579 N.4        1 MOL1        -0.5956
      24    H16     18.695474   20.129207   25.290261 H          1 MOL1         0.3624
      25    H17     19.435550   21.059501   26.433999 H          1 MOL1         0.3624
      26    H18     18.773042   19.609583   26.854643 H          1 MOL1         0.3624
@<TRIPOS>BOND
    1     1     2    1
    2     1     3    1
    3     1     4    1
    4     1     5    1
    5     5     6    1
    6     5     7    1
    7     5     8    1
    8     8     9    1
    9     8    10    1
   10     8    11    1
   11    11    12    1
   12    11    13    1
   13    11    14    1
   14    14    15    1
   15    14    16    1
   16    14    17    1
   17    17    18    1
   18    17    19    1
   19    17    20    1
   20    20    21    1
   21    20    22    1
   22    20    23    1
   23    23    24    1
   24    23    25    1
   25    23    26    1
@<TRIPOS>SUBSTRUCTURE
       1 MOL1            1 RESIDUE      1      MOL     
@<SCITEGIC>MOL_PROPERTY
VM2 Rank
SciTegic.value.IntegerValue
51

@<SCITEGIC>MOL_PROPERTY
Conf_Id
SciTegic.value.IntegerValue
563

@<SCITEGIC>MOL_PROPERTY
Probability
SciTegic.value.DoubleValue
0.58

@<SCITEGIC>MOL_PROPERTY
Sum Probability
SciTegic.value.DoubleValue
83.32

@<SCITEGIC>MOL_PROPERTY
Delta G
SciTegic.value.DoubleValue
1.525

@<SCITEGIC>MOL_PROPERTY
G
SciTegic.value.DoubleValue
49.787

@<SCITEGIC>MOL_PROPERTY
E
SciTegic.value.DoubleValue
17.038

@<SCITEGIC>MOL_PROPERTY
-TS
SciTegic.value.DoubleValue
32.749

@<SCITEGIC>MOL_PROPERTY
U+W
SciTegic.value.DoubleValue
-4.424

@<SCITEGIC>MOL_PROPERTY
U
SciTegic.value.DoubleValue
49.414

@<SCITEGIC>MOL_PROPERTY
W
SciTegic.value.DoubleValue
-53.837

@<SCITEGIC>MOL_PROPERTY
W(PB)
SciTegic.value.DoubleValue
-56.110

@<SCITEGIC>MOL_PROPERTY
W(SA)
SciTegic.value.DoubleValue
2.273

@<SCITEGIC>MOL_PROPERTY
Valence
SciTegic.value.DoubleValue
3.043

@<SCITEGIC>MOL_PROPERTY
Coulomb
SciTegic.value.DoubleValue
45.606

@<SCITEGIC>MOL_PROPERTY
VdW
SciTegic.value.DoubleValue
0.764

@<SCITEGIC>MOL_PROPERTY
VdW6
SciTegic.value.DoubleValue
-7.758

@<SCITEGIC>MOL_PROPERTY
VdW12
SciTegic.value.DoubleValue
8.523

@<SCITEGIC>MOL_PROPERTY
Bond
SciTegic.value.DoubleValue
0.212

@<SCITEGIC>MOL_PROPERTY
Angle
SciTegic.value.DoubleValue
0.867

@<SCITEGIC>MOL_PROPERTY
Pdih
SciTegic.value.DoubleValue
1.964

@<SCITEGIC>MOL_PROPERTY
Idih
SciTegic.value.DoubleValue
0.000

@<SCITEGIC>MOL_PROPERTY
Tether
SciTegic.value.DoubleValue
0.000

@<TRIPOS>MOLECULE
guest-s14_vm2.mol2 : vm2 ligand conformer 52
          26          25           1
SMALL
USER_CHARGES
 
@<TRIPOS>ATOM
       1    C1      19.457569   19.995620   20.203502 C.3        1 MOL1        -0.2400
       2    H1      19.622182   20.956036   19.698187 H          1 MOL1         0.0971
       3    H2      18.988152   19.312927   19.483416 H          1 MOL1         0.0971
       4    H3      18.750031   20.170858   21.023492 H          1 MOL1         0.0971
       5    C2      20.794775   19.420964   20.723030 C.3        1 MOL1        -0.1385
       6    H4      21.235015   20.110647   21.455517 H          1 MOL1         0.0960
       7    H5      21.507916   19.374928   19.888178 H          1 MOL1         0.0960
       8    C3      20.660249   18.003167   21.334945 C.3        1 MOL1        -0.1409
       9    H6      20.335452   17.307224   20.549259 H          1 MOL1         0.0960
      10    H7      21.654709   17.657841   21.649468 H          1 MOL1         0.0960
      11    C4      19.684285   17.888576   22.534460 C.3        1 MOL1        -0.1409
      12    H8      19.663962   16.840538   22.863712 H          1 MOL1         0.0960
      13    H9      18.662013   18.122134   22.208659 H          1 MOL1         0.0960
      14    C5      20.070429   18.785985   23.734503 C.3        1 MOL1        -0.1409
      15    H10     21.110584   18.580117   24.019819 H          1 MOL1         0.0960
      16    H11     20.020866   19.842990   23.441220 H          1 MOL1         0.0960
      17    C6      19.136167   18.554649   24.945606 C.3        1 MOL1        -0.1450
      18    H12     19.199843   17.509518   25.276648 H          1 MOL1         0.0960
      19    H13     18.095312   18.723451   24.638857 H          1 MOL1         0.0960
      20    C7      19.453462   19.488953   26.129091 C.3        1 MOL1         0.0172
      21    H14     19.396215   20.530498   25.801516 H          1 MOL1         0.0934
      22    H15     18.712201   19.338620   26.918704 H          1 MOL1         0.0934
      23    N1      20.824064   19.261084   26.735862 N.4        1 MOL1        -0.5956
      24    H16     21.572310   19.421646   26.054506 H          1 MOL1         0.3624
      25    H17     20.931509   18.302926   27.084293 H          1 MOL1         0.3624
      26    H18     20.999026   19.889197   27.527802 H          1 MOL1         0.3624
@<TRIPOS>BOND
    1     1     2    1
    2     1     3    1
    3     1     4    1
    4     1     5    1
    5     5     6    1
    6     5     7    1
    7     5     8    1
    8     8     9    1
    9     8    10    1
   10     8    11    1
   11    11    12    1
   12    11    13    1
   13    11    14    1
   14    14    15    1
   15    14    16    1
   16    14    17    1
   17    17    18    1
   18    17    19    1
   19    17    20    1
   20    20    21    1
   21    20    22    1
   22    20    23    1
   23    23    24    1
   24    23    25    1
   25    23    26    1
@<TRIPOS>SUBSTRUCTURE
       1 MOL1            1 RESIDUE      1      MOL     
@<SCITEGIC>MOL_PROPERTY
VM2 Rank
SciTegic.value.IntegerValue
52

@<SCITEGIC>MOL_PROPERTY
Conf_Id
SciTegic.value.IntegerValue
1310

@<SCITEGIC>MOL_PROPERTY
Probability
SciTegic.value.DoubleValue
0.56

@<SCITEGIC>MOL_PROPERTY
Sum Probability
SciTegic.value.DoubleValue
83.88

@<SCITEGIC>MOL_PROPERTY
Delta G
SciTegic.value.DoubleValue
1.545

@<SCITEGIC>MOL_PROPERTY
G
SciTegic.value.DoubleValue
49.806

@<SCITEGIC>MOL_PROPERTY
E
SciTegic.value.DoubleValue
16.919

@<SCITEGIC>MOL_PROPERTY
-TS
SciTegic.value.DoubleValue
32.887

@<SCITEGIC>MOL_PROPERTY
U+W
SciTegic.value.DoubleValue
-4.543

@<SCITEGIC>MOL_PROPERTY
U
SciTegic.value.DoubleValue
49.147

@<SCITEGIC>MOL_PROPERTY
W
SciTegic.value.DoubleValue
-53.690

@<SCITEGIC>MOL_PROPERTY
W(PB)
SciTegic.value.DoubleValue
-55.965

@<SCITEGIC>MOL_PROPERTY
W(SA)
SciTegic.value.DoubleValue
2.275

@<SCITEGIC>MOL_PROPERTY
Valence
SciTegic.value.DoubleValue
3.219

@<SCITEGIC>MOL_PROPERTY
Coulomb
SciTegic.value.DoubleValue
45.149

@<SCITEGIC>MOL_PROPERTY
VdW
SciTegic.value.DoubleValue
0.779

@<SCITEGIC>MOL_PROPERTY
VdW6
SciTegic.value.DoubleValue
-7.884

@<SCITEGIC>MOL_PROPERTY
VdW12
SciTegic.value.DoubleValue
8.663

@<SCITEGIC>MOL_PROPERTY
Bond
SciTegic.value.DoubleValue
0.228

@<SCITEGIC>MOL_PROPERTY
Angle
SciTegic.value.DoubleValue
1.077

@<SCITEGIC>MOL_PROPERTY
Pdih
SciTegic.value.DoubleValue
1.914

@<SCITEGIC>MOL_PROPERTY
Idih
SciTegic.value.DoubleValue
0.000

@<SCITEGIC>MOL_PROPERTY
Tether
SciTegic.value.DoubleValue
0.000

@<TRIPOS>MOLECULE
guest-s14_vm2.mol2 : vm2 ligand conformer 53
          26          25           1
SMALL
USER_CHARGES
 
@<TRIPOS>ATOM
       1    C1      19.129310   19.084308   19.579744 C.3        1 MOL1        -0.2400
       2    H1      18.134328   19.371649   19.943980 H          1 MOL1         0.0971
       3    H2      19.647589   19.993342   19.247665 H          1 MOL1         0.0971
       4    H3      18.993403   18.435258   18.704933 H          1 MOL1         0.0971
       5    C2      19.933644   18.357127   20.678101 C.3        1 MOL1        -0.1385
       6    H4      20.908914   18.051918   20.273654 H          1 MOL1         0.0960
       7    H5      19.407488   17.436177   20.966057 H          1 MOL1         0.0960
       8    C3      20.140258   19.249905   21.921644 C.3        1 MOL1        -0.1409
       9    H6      20.668464   20.168036   21.629727 H          1 MOL1         0.0960
      10    H7      19.159734   19.555056   22.310006 H          1 MOL1         0.0960
      11    C4      20.942306   18.520320   23.025708 C.3        1 MOL1        -0.1409
      12    H8      21.890045   18.161686   22.600876 H          1 MOL1         0.0960
      13    H9      20.396565   17.623512   23.347916 H          1 MOL1         0.0960
      14    C5      21.264303   19.415300   24.250358 C.3        1 MOL1        -0.1409
      15    H10     21.880399   18.841892   24.955952 H          1 MOL1         0.0960
      16    H11     21.891619   20.256416   23.924502 H          1 MOL1         0.0960
      17    C6      20.023513   19.976116   24.993776 C.3        1 MOL1        -0.1450
      18    H12     19.496943   20.689876   24.347475 H          1 MOL1         0.0960
      19    H13     20.356398   20.552707   25.866954 H          1 MOL1         0.0960
      20    C7      19.027393   18.893240   25.454670 C.3        1 MOL1         0.0172
      21    H14     18.170263   19.369667   25.938209 H          1 MOL1         0.0934
      22    H15     18.662335   18.335295   24.588437 H          1 MOL1         0.0934
      23    N1      19.620272   17.902685   26.436999 N.4        1 MOL1        -0.5956
      24    H16     18.935126   17.196787   26.727467 H          1 MOL1         0.3624
      25    H17     19.953620   18.365416   27.288820 H          1 MOL1         0.3624
      26    H18     20.417322   17.401684   26.032557 H          1 MOL1         0.3624
@<TRIPOS>BOND
    1     1     2    1
    2     1     3    1
    3     1     4    1
    4     1     5    1
    5     5     6    1
    6     5     7    1
    7     5     8    1
    8     8     9    1
    9     8    10    1
   10     8    11    1
   11    11    12    1
   12    11    13    1
   13    11    14    1
   14    14    15    1
   15    14    16    1
   16    14    17    1
   17    17    18    1
   18    17    19    1
   19    17    20    1
   20    20    21    1
   21    20    22    1
   22    20    23    1
   23    23    24    1
   24    23    25    1
   25    23    26    1
@<TRIPOS>SUBSTRUCTURE
       1 MOL1            1 RESIDUE      1      MOL     
@<SCITEGIC>MOL_PROPERTY
VM2 Rank
SciTegic.value.IntegerValue
53

@<SCITEGIC>MOL_PROPERTY
Conf_Id
SciTegic.value.IntegerValue
788

@<SCITEGIC>MOL_PROPERTY
Probability
SciTegic.value.DoubleValue
0.55

@<SCITEGIC>MOL_PROPERTY
Sum Probability
SciTegic.value.DoubleValue
84.43

@<SCITEGIC>MOL_PROPERTY
Delta G
SciTegic.value.DoubleValue
1.553

@<SCITEGIC>MOL_PROPERTY
G
SciTegic.value.DoubleValue
49.814

@<SCITEGIC>MOL_PROPERTY
E
SciTegic.value.DoubleValue
16.914

@<SCITEGIC>MOL_PROPERTY
-TS
SciTegic.value.DoubleValue
32.900

@<SCITEGIC>MOL_PROPERTY
U+W
SciTegic.value.DoubleValue
-4.548

@<SCITEGIC>MOL_PROPERTY
U
SciTegic.value.DoubleValue
49.197

@<SCITEGIC>MOL_PROPERTY
W
SciTegic.value.DoubleValue
-53.745

@<SCITEGIC>MOL_PROPERTY
W(PB)
SciTegic.value.DoubleValue
-56.033

@<SCITEGIC>MOL_PROPERTY
W(SA)
SciTegic.value.DoubleValue
2.288

@<SCITEGIC>MOL_PROPERTY
Valence
SciTegic.value.DoubleValue
3.018

@<SCITEGIC>MOL_PROPERTY
Coulomb
SciTegic.value.DoubleValue
45.589

@<SCITEGIC>MOL_PROPERTY
VdW
SciTegic.value.DoubleValue
0.590

@<SCITEGIC>MOL_PROPERTY
VdW6
SciTegic.value.DoubleValue
-8.073

@<SCITEGIC>MOL_PROPERTY
VdW12
SciTegic.value.DoubleValue
8.662

@<SCITEGIC>MOL_PROPERTY
Bond
SciTegic.value.DoubleValue
0.222

@<SCITEGIC>MOL_PROPERTY
Angle
SciTegic.value.DoubleValue
0.958

@<SCITEGIC>MOL_PROPERTY
Pdih
SciTegic.value.DoubleValue
1.839

@<SCITEGIC>MOL_PROPERTY
Idih
SciTegic.value.DoubleValue
0.000

@<SCITEGIC>MOL_PROPERTY
Tether
SciTegic.value.DoubleValue
0.000

@<TRIPOS>MOLECULE
guest-s14_vm2.mol2 : vm2 ligand conformer 54
          26          25           1
SMALL
USER_CHARGES
 
@<TRIPOS>ATOM
       1    C1      19.773232   17.595737   20.451546 C.3        1 MOL1        -0.2400
       2    H1      20.115567   17.102528   21.369823 H          1 MOL1         0.0971
       3    H2      18.997374   16.960635   20.004861 H          1 MOL1         0.0971
       4    H3      20.616180   17.640571   19.749852 H          1 MOL1         0.0971
       5    C2      19.216425   19.007928   20.741314 C.3        1 MOL1        -0.1385
       6    H4      18.388325   18.939889   21.459341 H          1 MOL1         0.0960
       7    H5      18.779522   19.412096   19.817498 H          1 MOL1         0.0960
       8    C3      20.290432   20.001180   21.253933 C.3        1 MOL1        -0.1409
       9    H6      21.041435   20.148978   20.465717 H          1 MOL1         0.0960
      10    H7      19.820113   20.982076   21.408147 H          1 MOL1         0.0960
      11    C4      21.015923   19.579630   22.557984 C.3        1 MOL1        -0.1409
      12    H8      21.758559   20.351138   22.803807 H          1 MOL1         0.0960
      13    H9      21.585488   18.656377   22.387805 H          1 MOL1         0.0960
      14    C5      20.064013   19.393253   23.763715 C.3        1 MOL1        -0.1409
      15    H10     19.466348   20.304622   23.903540 H          1 MOL1         0.0960
      16    H11     19.361003   18.577337   23.554321 H          1 MOL1         0.0960
      17    C6      20.841935   19.082146   25.064231 C.3        1 MOL1        -0.1450
      18    H12     21.566329   19.884890   25.255981 H          1 MOL1         0.0960
      19    H13     21.422879   18.158113   24.943238 H          1 MOL1         0.0960
      20    C7      19.920965   18.953870   26.292949 C.3        1 MOL1         0.0172
      21    H14     20.530826   18.821470   27.190776 H          1 MOL1         0.0934
      22    H15     19.334941   19.869326   26.410917 H          1 MOL1         0.0934
      23    N1      18.958075   17.785256   26.215328 N.4        1 MOL1        -0.5956
      24    H16     18.370014   17.720600   27.053388 H          1 MOL1         0.3624
      25    H17     19.451336   16.890972   26.126126 H          1 MOL1         0.3624
      26    H18     18.327411   17.865604   25.411813 H          1 MOL1         0.3624
@<TRIPOS>BOND
    1     1     2    1
    2     1     3    1
    3     1     4    1
    4     1     5    1
    5     5     6    1
    6     5     7    1
    7     5     8    1
    8     8     9    1
    9     8    10    1
   10     8    11    1
   11    11    12    1
   12    11    13    1
   13    11    14    1
   14    14    15    1
   15    14    16    1
   16    14    17    1
   17    17    18    1
   18    17    19    1
   19    17    20    1
   20    20    21    1
   21    20    22    1
   22    20    23    1
   23    23    24    1
   24    23    25    1
   25    23    26    1
@<TRIPOS>SUBSTRUCTURE
       1 MOL1            1 RESIDUE      1      MOL     
@<SCITEGIC>MOL_PROPERTY
VM2 Rank
SciTegic.value.IntegerValue
54

@<SCITEGIC>MOL_PROPERTY
Conf_Id
SciTegic.value.IntegerValue
1136

@<SCITEGIC>MOL_PROPERTY
Probability
SciTegic.value.DoubleValue
0.53

@<SCITEGIC>MOL_PROPERTY
Sum Probability
SciTegic.value.DoubleValue
84.95

@<SCITEGIC>MOL_PROPERTY
Delta G
SciTegic.value.DoubleValue
1.576

@<SCITEGIC>MOL_PROPERTY
G
SciTegic.value.DoubleValue
49.838

@<SCITEGIC>MOL_PROPERTY
E
SciTegic.value.DoubleValue
16.947

@<SCITEGIC>MOL_PROPERTY
-TS
SciTegic.value.DoubleValue
32.890

@<SCITEGIC>MOL_PROPERTY
U+W
SciTegic.value.DoubleValue
-4.515

@<SCITEGIC>MOL_PROPERTY
U
SciTegic.value.DoubleValue
49.426

@<SCITEGIC>MOL_PROPERTY
W
SciTegic.value.DoubleValue
-53.941

@<SCITEGIC>MOL_PROPERTY
W(PB)
SciTegic.value.DoubleValue
-56.205

@<SCITEGIC>MOL_PROPERTY
W(SA)
SciTegic.value.DoubleValue
2.264

@<SCITEGIC>MOL_PROPERTY
Valence
SciTegic.value.DoubleValue
3.214

@<SCITEGIC>MOL_PROPERTY
Coulomb
SciTegic.value.DoubleValue
45.444

@<SCITEGIC>MOL_PROPERTY
VdW
SciTegic.value.DoubleValue
0.768

@<SCITEGIC>MOL_PROPERTY
VdW6
SciTegic.value.DoubleValue
-7.916

@<SCITEGIC>MOL_PROPERTY
VdW12
SciTegic.value.DoubleValue
8.684

@<SCITEGIC>MOL_PROPERTY
Bond
SciTegic.value.DoubleValue
0.230

@<SCITEGIC>MOL_PROPERTY
Angle
SciTegic.value.DoubleValue
1.078

@<SCITEGIC>MOL_PROPERTY
Pdih
SciTegic.value.DoubleValue
1.906

@<SCITEGIC>MOL_PROPERTY
Idih
SciTegic.value.DoubleValue
0.000

@<SCITEGIC>MOL_PROPERTY
Tether
SciTegic.value.DoubleValue
0.000

@<TRIPOS>MOLECULE
guest-s14_vm2.mol2 : vm2 ligand conformer 55
          26          25           1
SMALL
USER_CHARGES
 
@<TRIPOS>ATOM
       1    C1      21.018441   19.405046   19.760321 C.3        1 MOL1        -0.2400
       2    H1      21.787663   18.756061   20.197007 H          1 MOL1         0.0971
       3    H2      21.133911   19.365937   18.669423 H          1 MOL1         0.0971
       4    H3      21.214639   20.436075   20.082027 H          1 MOL1         0.0971
       5    C2      19.597663   18.955775   20.170431 C.3        1 MOL1        -0.1385
       6    H4      19.435616   17.914012   19.860251 H          1 MOL1         0.0960
       7    H5      18.862146   19.558395   19.619392 H          1 MOL1         0.0960
       8    C3      19.322732   19.099719   21.686720 C.3        1 MOL1        -0.1409
       9    H6      19.457059   20.150073   21.976428 H          1 MOL1         0.0960
      10    H7      18.267894   18.856817   21.874915 H          1 MOL1         0.0960
      11    C4      20.217737   18.185829   22.561629 C.3        1 MOL1        -0.1409
      12    H8      21.267418   18.497893   22.481199 H          1 MOL1         0.0960
      13    H9      20.168700   17.159628   22.172211 H          1 MOL1         0.0960
      14    C5      19.806514   18.163900   24.054439 C.3        1 MOL1        -0.1409
      15    H10     18.761669   17.835612   24.143571 H          1 MOL1         0.0960
      16    H11     20.413111   17.404227   24.564833 H          1 MOL1         0.0960
      17    C6      19.986782   19.529218   24.764375 C.3        1 MOL1        -0.1450
      18    H12     19.352612   20.284493   24.283830 H          1 MOL1         0.0960
      19    H13     21.023590   19.874999   24.658323 H          1 MOL1         0.0960
      20    C7      19.612850   19.475938   26.258371 C.3        1 MOL1         0.0172
      21    H14     19.666329   20.482963   26.680975 H          1 MOL1         0.0934
      22    H15     18.586934   19.114297   26.368443 H          1 MOL1         0.0934
      23    N1      20.518280   18.583574   27.084715 N.4        1 MOL1        -0.5956
      24    H16     20.250781   18.582537   28.075047 H          1 MOL1         0.3624
      25    H17     21.496466   18.887036   27.039230 H          1 MOL1         0.3624
      26    H18     20.487532   17.610596   26.764990 H          1 MOL1         0.3624
@<TRIPOS>BOND
    1     1     2    1
    2     1     3    1
    3     1     4    1
    4     1     5    1
    5     5     6    1
    6     5     7    1
    7     5     8    1
    8     8     9    1
    9     8    10    1
   10     8    11    1
   11    11    12    1
   12    11    13    1
   13    11    14    1
   14    14    15    1
   15    14    16    1
   16    14    17    1
   17    17    18    1
   18    17    19    1
   19    17    20    1
   20    20    21    1
   21    20    22    1
   22    20    23    1
   23    23    24    1
   24    23    25    1
   25    23    26    1
@<TRIPOS>SUBSTRUCTURE
       1 MOL1            1 RESIDUE      1      MOL     
@<SCITEGIC>MOL_PROPERTY
VM2 Rank
SciTegic.value.IntegerValue
55

@<SCITEGIC>MOL_PROPERTY
Conf_Id
SciTegic.value.IntegerValue
709

@<SCITEGIC>MOL_PROPERTY
Probability
SciTegic.value.DoubleValue
0.53

@<SCITEGIC>MOL_PROPERTY
Sum Probability
SciTegic.value.DoubleValue
85.48

@<SCITEGIC>MOL_PROPERTY
Delta G
SciTegic.value.DoubleValue
1.578

@<SCITEGIC>MOL_PROPERTY
G
SciTegic.value.DoubleValue
49.840

@<SCITEGIC>MOL_PROPERTY
E
SciTegic.value.DoubleValue
17.165

@<SCITEGIC>MOL_PROPERTY
-TS
SciTegic.value.DoubleValue
32.675

@<SCITEGIC>MOL_PROPERTY
U+W
SciTegic.value.DoubleValue
-4.297

@<SCITEGIC>MOL_PROPERTY
U
SciTegic.value.DoubleValue
49.153

@<SCITEGIC>MOL_PROPERTY
W
SciTegic.value.DoubleValue
-53.449

@<SCITEGIC>MOL_PROPERTY
W(PB)
SciTegic.value.DoubleValue
-55.735

@<SCITEGIC>MOL_PROPERTY
W(SA)
SciTegic.value.DoubleValue
2.286

@<SCITEGIC>MOL_PROPERTY
Valence
SciTegic.value.DoubleValue
3.298

@<SCITEGIC>MOL_PROPERTY
Coulomb
SciTegic.value.DoubleValue
44.906

@<SCITEGIC>MOL_PROPERTY
VdW
SciTegic.value.DoubleValue
0.948

@<SCITEGIC>MOL_PROPERTY
VdW6
SciTegic.value.DoubleValue
-7.574

@<SCITEGIC>MOL_PROPERTY
VdW12
SciTegic.value.DoubleValue
8.522

@<SCITEGIC>MOL_PROPERTY
Bond
SciTegic.value.DoubleValue
0.229

@<SCITEGIC>MOL_PROPERTY
Angle
SciTegic.value.DoubleValue
0.912

@<SCITEGIC>MOL_PROPERTY
Pdih
SciTegic.value.DoubleValue
2.157

@<SCITEGIC>MOL_PROPERTY
Idih
SciTegic.value.DoubleValue
0.000

@<SCITEGIC>MOL_PROPERTY
Tether
SciTegic.value.DoubleValue
0.000

@<TRIPOS>MOLECULE
guest-s14_vm2.mol2 : vm2 ligand conformer 56
          26          25           1
SMALL
USER_CHARGES
 
@<TRIPOS>ATOM
       1    C1      19.572335   19.376414   19.472780 C.3        1 MOL1        -0.2400
       2    H1      19.808436   19.237474   18.409818 H          1 MOL1         0.0971
       3    H2      18.482330   19.311610   19.585470 H          1 MOL1         0.0971
       4    H3      19.887588   20.389885   19.749686 H          1 MOL1         0.0971
       5    C2      20.284525   18.304477   20.328882 C.3        1 MOL1        -0.1385
       6    H4      21.373400   18.412089   20.226337 H          1 MOL1         0.0960
       7    H5      20.035136   17.311641   19.929016 H          1 MOL1         0.0960
       8    C3      19.892470   18.347885   21.825818 C.3        1 MOL1        -0.1409
       9    H6      18.803747   18.237054   21.922821 H          1 MOL1         0.0960
      10    H7      20.338176   17.474000   22.317856 H          1 MOL1         0.0960
      11    C4      20.353566   19.640119   22.546929 C.3        1 MOL1        -0.1409
      12    H8      19.909505   20.512950   22.051324 H          1 MOL1         0.0960
      13    H9      21.442382   19.750578   22.450533 H          1 MOL1         0.0960
      14    C5      19.957330   19.687557   24.043278 C.3        1 MOL1        -0.1409
      15    H10     20.206230   20.682962   24.436754 H          1 MOL1         0.0960
      16    H11     18.867807   19.582863   24.133139 H          1 MOL1         0.0960
      17    C6      20.668263   18.615824   24.907115 C.3        1 MOL1        -0.1450
      18    H12     21.751498   18.669363   24.735372 H          1 MOL1         0.0960
      19    H13     20.351035   17.608606   24.609415 H          1 MOL1         0.0960
      20    C7      20.403712   18.800862   26.413688 C.3        1 MOL1         0.0172
      21    H14     20.988512   18.069083   26.977655 H          1 MOL1         0.0934
      22    H15     20.719450   19.800944   26.722780 H          1 MOL1         0.0934
      23    N1      18.948800   18.625863   26.802512 N.4        1 MOL1        -0.5956
      24    H16     18.807445   18.744634   27.811576 H          1 MOL1         0.3624
      25    H17     18.599002   17.693569   26.558769 H          1 MOL1         0.3624
      26    H18     18.345942   19.308356   26.332698 H          1 MOL1         0.3624
@<TRIPOS>BOND
    1     1     2    1
    2     1     3    1
    3     1     4    1
    4     1     5    1
    5     5     6    1
    6     5     7    1
    7     5     8    1
    8     8     9    1
    9     8    10    1
   10     8    11    1
   11    11    12    1
   12    11    13    1
   13    11    14    1
   14    14    15    1
   15    14    16    1
   16    14    17    1
   17    17    18    1
   18    17    19    1
   19    17    20    1
   20    20    21    1
   21    20    22    1
   22    20    23    1
   23    23    24    1
   24    23    25    1
   25    23    26    1
@<TRIPOS>SUBSTRUCTURE
       1 MOL1            1 RESIDUE      1      MOL     
@<SCITEGIC>MOL_PROPERTY
VM2 Rank
SciTegic.value.IntegerValue
56

@<SCITEGIC>MOL_PROPERTY
Conf_Id
SciTegic.value.IntegerValue
734

@<SCITEGIC>MOL_PROPERTY
Probability
SciTegic.value.DoubleValue
0.52

@<SCITEGIC>MOL_PROPERTY
Sum Probability
SciTegic.value.DoubleValue
86.00

@<SCITEGIC>MOL_PROPERTY
Delta G
SciTegic.value.DoubleValue
1.591

@<SCITEGIC>MOL_PROPERTY
G
SciTegic.value.DoubleValue
49.853

@<SCITEGIC>MOL_PROPERTY
E
SciTegic.value.DoubleValue
17.227

@<SCITEGIC>MOL_PROPERTY
-TS
SciTegic.value.DoubleValue
32.625

@<SCITEGIC>MOL_PROPERTY
U+W
SciTegic.value.DoubleValue
-4.235

@<SCITEGIC>MOL_PROPERTY
U
SciTegic.value.DoubleValue
49.401

@<SCITEGIC>MOL_PROPERTY
W
SciTegic.value.DoubleValue
-53.636

@<SCITEGIC>MOL_PROPERTY
W(PB)
SciTegic.value.DoubleValue
-55.926

@<SCITEGIC>MOL_PROPERTY
W(SA)
SciTegic.value.DoubleValue
2.290

@<SCITEGIC>MOL_PROPERTY
Valence
SciTegic.value.DoubleValue
3.370

@<SCITEGIC>MOL_PROPERTY
Coulomb
SciTegic.value.DoubleValue
45.066

@<SCITEGIC>MOL_PROPERTY
VdW
SciTegic.value.DoubleValue
0.965

@<SCITEGIC>MOL_PROPERTY
VdW6
SciTegic.value.DoubleValue
-7.528

@<SCITEGIC>MOL_PROPERTY
VdW12
SciTegic.value.DoubleValue
8.494

@<SCITEGIC>MOL_PROPERTY
Bond
SciTegic.value.DoubleValue
0.232

@<SCITEGIC>MOL_PROPERTY
Angle
SciTegic.value.DoubleValue
0.963

@<SCITEGIC>MOL_PROPERTY
Pdih
SciTegic.value.DoubleValue
2.174

@<SCITEGIC>MOL_PROPERTY
Idih
SciTegic.value.DoubleValue
0.000

@<SCITEGIC>MOL_PROPERTY
Tether
SciTegic.value.DoubleValue
0.000

@<TRIPOS>MOLECULE
guest-s14_vm2.mol2 : vm2 ligand conformer 57
          26          25           1
SMALL
USER_CHARGES
 
@<TRIPOS>ATOM
       1    C1      19.337558   18.296303   19.704182 C.3        1 MOL1        -0.2400
       2    H1      19.611309   17.320566   20.124392 H          1 MOL1         0.0971
       3    H2      18.298526   18.512651   19.984563 H          1 MOL1         0.0971
       4    H3      19.378944   18.208232   18.610815 H          1 MOL1         0.0971
       5    C2      20.288954   19.411667   20.193514 C.3        1 MOL1        -0.1385
       6    H4      20.049876   20.341675   19.658998 H          1 MOL1         0.0960
       7    H5      21.323902   19.159375   19.923381 H          1 MOL1         0.0960
       8    C3      20.194066   19.674480   21.715804 C.3        1 MOL1        -0.1409
       9    H6      20.822443   20.541956   21.960204 H          1 MOL1         0.0960
      10    H7      19.163029   19.956093   21.966552 H          1 MOL1         0.0960
      11    C4      20.641558   18.465420   22.575812 C.3        1 MOL1        -0.1409
      12    H8      21.621576   18.118043   22.220800 H          1 MOL1         0.0960
      13    H9      19.946665   17.626629   22.437117 H          1 MOL1         0.0960
      14    C5      20.753640   18.788761   24.086095 C.3        1 MOL1        -0.1409
      15    H10     21.189659   17.916574   24.590816 H          1 MOL1         0.0960
      16    H11     21.461117   19.616464   24.233748 H          1 MOL1         0.0960
      17    C6      19.395696   19.139357   24.744629 C.3        1 MOL1        -0.1450
      18    H12     18.676058   18.326493   24.579840 H          1 MOL1         0.0960
      19    H13     18.973201   20.034284   24.271193 H          1 MOL1         0.0960
      20    C7      19.521887   19.415902   26.255353 C.3        1 MOL1         0.0172
      21    H14     20.251699   20.212325   26.424143 H          1 MOL1         0.0934
      22    H15     18.556229   19.750691   26.643910 H          1 MOL1         0.0934
      23    N1      19.947641   18.207110   27.065610 N.4        1 MOL1        -0.5956
      24    H16     20.007601   18.421980   28.066884 H          1 MOL1         0.3624
      25    H17     20.868274   17.861640   26.777608 H          1 MOL1         0.3624
      26    H18     19.286955   17.429644   26.965383 H          1 MOL1         0.3624
@<TRIPOS>BOND
    1     1     2    1
    2     1     3    1
    3     1     4    1
    4     1     5    1
    5     5     6    1
    6     5     7    1
    7     5     8    1
    8     8     9    1
    9     8    10    1
   10     8    11    1
   11    11    12    1
   12    11    13    1
   13    11    14    1
   14    14    15    1
   15    14    16    1
   16    14    17    1
   17    17    18    1
   18    17    19    1
   19    17    20    1
   20    20    21    1
   21    20    22    1
   22    20    23    1
   23    23    24    1
   24    23    25    1
   25    23    26    1
@<TRIPOS>SUBSTRUCTURE
       1 MOL1            1 RESIDUE      1      MOL     
@<SCITEGIC>MOL_PROPERTY
VM2 Rank
SciTegic.value.IntegerValue
57

@<SCITEGIC>MOL_PROPERTY
Conf_Id
SciTegic.value.IntegerValue
1306

@<SCITEGIC>MOL_PROPERTY
Probability
SciTegic.value.DoubleValue
0.51

@<SCITEGIC>MOL_PROPERTY
Sum Probability
SciTegic.value.DoubleValue
86.50

@<SCITEGIC>MOL_PROPERTY
Delta G
SciTegic.value.DoubleValue
1.602

@<SCITEGIC>MOL_PROPERTY
G
SciTegic.value.DoubleValue
49.863

@<SCITEGIC>MOL_PROPERTY
E
SciTegic.value.DoubleValue
17.188

@<SCITEGIC>MOL_PROPERTY
-TS
SciTegic.value.DoubleValue
32.675

@<SCITEGIC>MOL_PROPERTY
U+W
SciTegic.value.DoubleValue
-4.274

@<SCITEGIC>MOL_PROPERTY
U
SciTegic.value.DoubleValue
49.153

@<SCITEGIC>MOL_PROPERTY
W
SciTegic.value.DoubleValue
-53.426

@<SCITEGIC>MOL_PROPERTY
W(PB)
SciTegic.value.DoubleValue
-55.727

@<SCITEGIC>MOL_PROPERTY
W(SA)
SciTegic.value.DoubleValue
2.300

@<SCITEGIC>MOL_PROPERTY
Valence
SciTegic.value.DoubleValue
3.298

@<SCITEGIC>MOL_PROPERTY
Coulomb
SciTegic.value.DoubleValue
44.907

@<SCITEGIC>MOL_PROPERTY
VdW
SciTegic.value.DoubleValue
0.948

@<SCITEGIC>MOL_PROPERTY
VdW6
SciTegic.value.DoubleValue
-7.574

@<SCITEGIC>MOL_PROPERTY
VdW12
SciTegic.value.DoubleValue
8.522

@<SCITEGIC>MOL_PROPERTY
Bond
SciTegic.value.DoubleValue
0.229

@<SCITEGIC>MOL_PROPERTY
Angle
SciTegic.value.DoubleValue
0.912

@<SCITEGIC>MOL_PROPERTY
Pdih
SciTegic.value.DoubleValue
2.157

@<SCITEGIC>MOL_PROPERTY
Idih
SciTegic.value.DoubleValue
0.000

@<SCITEGIC>MOL_PROPERTY
Tether
SciTegic.value.DoubleValue
0.000

@<TRIPOS>MOLECULE
guest-s14_vm2.mol2 : vm2 ligand conformer 58
          26          25           1
SMALL
USER_CHARGES
 
@<TRIPOS>ATOM
       1    C1      19.602253   20.006523   19.741688 C.3        1 MOL1        -0.2400
       2    H1      18.547960   20.200052   19.978789 H          1 MOL1         0.0971
       3    H2      20.041919   20.942067   19.372278 H          1 MOL1         0.0971
       4    H3      19.640307   19.271838   18.926830 H          1 MOL1         0.0971
       5    C2      20.365507   19.498766   20.983332 C.3        1 MOL1        -0.1385
       6    H4      20.339114   20.275059   21.759590 H          1 MOL1         0.0960
       7    H5      21.421837   19.342624   20.723659 H          1 MOL1         0.0960
       8    C3      19.761053   18.182162   21.525421 C.3        1 MOL1        -0.1409
       9    H6      18.717479   18.347392   21.823835 H          1 MOL1         0.0960
      10    H7      19.726973   17.444425   20.711902 H          1 MOL1         0.0960
      11    C4      20.561136   17.569484   22.704208 C.3        1 MOL1        -0.1409
      12    H8      21.562813   17.293286   22.347030 H          1 MOL1         0.0960
      13    H9      20.080395   16.628330   23.004721 H          1 MOL1         0.0960
      14    C5      20.712030   18.477164   23.952647 C.3        1 MOL1        -0.1409
      15    H10     21.306866   17.931954   24.697202 H          1 MOL1         0.0960
      16    H11     21.295261   19.372055   23.698187 H          1 MOL1         0.0960
      17    C6      19.359370   18.895541   24.581490 C.3        1 MOL1        -0.1450
      18    H12     18.763288   18.004776   24.820089 H          1 MOL1         0.0960
      19    H13     18.778152   19.478652   23.856262 H          1 MOL1         0.0960
      20    C7      19.533589   19.753402   25.849623 C.3        1 MOL1         0.0172
      21    H14     20.143050   20.631425   25.619351 H          1 MOL1         0.0934
      22    H15     18.553693   20.098625   26.190463 H          1 MOL1         0.0934
      23    N1      20.186061   19.015957   27.002592 N.4        1 MOL1        -0.5956
      24    H16     20.273319   19.610416   27.834029 H          1 MOL1         0.3624
      25    H17     21.129191   18.694919   26.763297 H          1 MOL1         0.3624
      26    H18     19.646004   18.190055   27.280471 H          1 MOL1         0.3624
@<TRIPOS>BOND
    1     1     2    1
    2     1     3    1
    3     1     4    1
    4     1     5    1
    5     5     6    1
    6     5     7    1
    7     5     8    1
    8     8     9    1
    9     8    10    1
   10     8    11    1
   11    11    12    1
   12    11    13    1
   13    11    14    1
   14    14    15    1
   15    14    16    1
   16    14    17    1
   17    17    18    1
   18    17    19    1
   19    17    20    1
   20    20    21    1
   21    20    22    1
   22    20    23    1
   23    23    24    1
   24    23    25    1
   25    23    26    1
@<TRIPOS>SUBSTRUCTURE
       1 MOL1            1 RESIDUE      1      MOL     
@<SCITEGIC>MOL_PROPERTY
VM2 Rank
SciTegic.value.IntegerValue
58

@<SCITEGIC>MOL_PROPERTY
Conf_Id
SciTegic.value.IntegerValue
122

@<SCITEGIC>MOL_PROPERTY
Probability
SciTegic.value.DoubleValue
0.50

@<SCITEGIC>MOL_PROPERTY
Sum Probability
SciTegic.value.DoubleValue
87.00

@<SCITEGIC>MOL_PROPERTY
Delta G
SciTegic.value.DoubleValue
1.611

@<SCITEGIC>MOL_PROPERTY
G
SciTegic.value.DoubleValue
49.873

@<SCITEGIC>MOL_PROPERTY
E
SciTegic.value.DoubleValue
16.982

@<SCITEGIC>MOL_PROPERTY
-TS
SciTegic.value.DoubleValue
32.890

@<SCITEGIC>MOL_PROPERTY
U+W
SciTegic.value.DoubleValue
-4.480

@<SCITEGIC>MOL_PROPERTY
U
SciTegic.value.DoubleValue
49.231

@<SCITEGIC>MOL_PROPERTY
W
SciTegic.value.DoubleValue
-53.710

@<SCITEGIC>MOL_PROPERTY
W(PB)
SciTegic.value.DoubleValue
-55.983

@<SCITEGIC>MOL_PROPERTY
W(SA)
SciTegic.value.DoubleValue
2.273

@<SCITEGIC>MOL_PROPERTY
Valence
SciTegic.value.DoubleValue
3.276

@<SCITEGIC>MOL_PROPERTY
Coulomb
SciTegic.value.DoubleValue
45.175

@<SCITEGIC>MOL_PROPERTY
VdW
SciTegic.value.DoubleValue
0.779

@<SCITEGIC>MOL_PROPERTY
VdW6
SciTegic.value.DoubleValue
-7.944

@<SCITEGIC>MOL_PROPERTY
VdW12
SciTegic.value.DoubleValue
8.723

@<SCITEGIC>MOL_PROPERTY
Bond
SciTegic.value.DoubleValue
0.239

@<SCITEGIC>MOL_PROPERTY
Angle
SciTegic.value.DoubleValue
1.155

@<SCITEGIC>MOL_PROPERTY
Pdih
SciTegic.value.DoubleValue
1.883

@<SCITEGIC>MOL_PROPERTY
Idih
SciTegic.value.DoubleValue
0.000

@<SCITEGIC>MOL_PROPERTY
Tether
SciTegic.value.DoubleValue
0.000

@<TRIPOS>MOLECULE
guest-s14_vm2.mol2 : vm2 ligand conformer 59
          26          25           1
SMALL
USER_CHARGES
 
@<TRIPOS>ATOM
       1    C1      20.478488   19.513054   19.447655 C.3        1 MOL1        -0.2400
       2    H1      21.463945   19.758175   19.862331 H          1 MOL1         0.0971
       3    H2      20.627676   19.207686   18.403898 H          1 MOL1         0.0971
       4    H3      19.868438   20.425659   19.446127 H          1 MOL1         0.0971
       5    C2      19.788583   18.384394   20.247272 C.3        1 MOL1        -0.1385
       6    H4      20.433499   17.494697   20.263762 H          1 MOL1         0.0960
       7    H5      18.871265   18.088836   19.719074 H          1 MOL1         0.0960
       8    C3      19.417482   18.789393   21.694613 C.3        1 MOL1        -0.1409
       9    H6      18.771716   19.677935   21.672193 H          1 MOL1         0.0960
      10    H7      18.816441   17.980091   22.128059 H          1 MOL1         0.0960
      11    C4      20.650243   19.060563   22.594434 C.3        1 MOL1        -0.1409
      12    H8      21.252484   19.865050   22.153158 H          1 MOL1         0.0960
      13    H9      21.294395   18.170938   22.620140 H          1 MOL1         0.0960
      14    C5      20.284042   19.478219   24.040284 C.3        1 MOL1        -0.1409
      15    H10     21.205468   19.795384   24.546184 H          1 MOL1         0.0960
      16    H11     19.627970   20.359298   24.013764 H          1 MOL1         0.0960
      17    C6      19.611314   18.349794   24.862092 C.3        1 MOL1        -0.1450
      18    H12     20.249275   17.456073   24.867728 H          1 MOL1         0.0960
      19    H13     18.665119   18.057962   24.390340 H          1 MOL1         0.0960
      20    C7      19.306442   18.772390   26.312373 C.3        1 MOL1         0.0172
      21    H14     18.688088   19.674079   26.310884 H          1 MOL1         0.0934
      22    H15     18.746854   17.976369   26.811139 H          1 MOL1         0.0934
      23    N1      20.544406   19.051193   27.142277 N.4        1 MOL1        -0.5956
      24    H16     20.306076   19.314828   28.104573 H          1 MOL1         0.3624
      25    H17     21.100001   19.817766   26.750446 H          1 MOL1         0.3624
      26    H18     21.156960   18.231129   27.199636 H          1 MOL1         0.3624
@<TRIPOS>BOND
    1     1     2    1
    2     1     3    1
    3     1     4    1
    4     1     5    1
    5     5     6    1
    6     5     7    1
    7     5     8    1
    8     8     9    1
    9     8    10    1
   10     8    11    1
   11    11    12    1
   12    11    13    1
   13    11    14    1
   14    14    15    1
   15    14    16    1
   16    14    17    1
   17    17    18    1
   18    17    19    1
   19    17    20    1
   20    20    21    1
   21    20    22    1
   22    20    23    1
   23    23    24    1
   24    23    25    1
   25    23    26    1
@<TRIPOS>SUBSTRUCTURE
       1 MOL1            1 RESIDUE      1      MOL     
@<SCITEGIC>MOL_PROPERTY
VM2 Rank
SciTegic.value.IntegerValue
59

@<SCITEGIC>MOL_PROPERTY
Conf_Id
SciTegic.value.IntegerValue
1239

@<SCITEGIC>MOL_PROPERTY
Probability
SciTegic.value.DoubleValue
0.48

@<SCITEGIC>MOL_PROPERTY
Sum Probability
SciTegic.value.DoubleValue
87.48

@<SCITEGIC>MOL_PROPERTY
Delta G
SciTegic.value.DoubleValue
1.634

@<SCITEGIC>MOL_PROPERTY
G
SciTegic.value.DoubleValue
49.896

@<SCITEGIC>MOL_PROPERTY
E
SciTegic.value.DoubleValue
17.316

@<SCITEGIC>MOL_PROPERTY
-TS
SciTegic.value.DoubleValue
32.579

@<SCITEGIC>MOL_PROPERTY
U+W
SciTegic.value.DoubleValue
-4.145

@<SCITEGIC>MOL_PROPERTY
U
SciTegic.value.DoubleValue
49.323

@<SCITEGIC>MOL_PROPERTY
W
SciTegic.value.DoubleValue
-53.468

@<SCITEGIC>MOL_PROPERTY
W(PB)
SciTegic.value.DoubleValue
-55.769

@<SCITEGIC>MOL_PROPERTY
W(SA)
SciTegic.value.DoubleValue
2.301

@<SCITEGIC>MOL_PROPERTY
Valence
SciTegic.value.DoubleValue
3.408

@<SCITEGIC>MOL_PROPERTY
Coulomb
SciTegic.value.DoubleValue
44.893

@<SCITEGIC>MOL_PROPERTY
VdW
SciTegic.value.DoubleValue
1.021

@<SCITEGIC>MOL_PROPERTY
VdW6
SciTegic.value.DoubleValue
-7.482

@<SCITEGIC>MOL_PROPERTY
VdW12
SciTegic.value.DoubleValue
8.503

@<SCITEGIC>MOL_PROPERTY
Bond
SciTegic.value.DoubleValue
0.238

@<SCITEGIC>MOL_PROPERTY
Angle
SciTegic.value.DoubleValue
1.013

@<SCITEGIC>MOL_PROPERTY
Pdih
SciTegic.value.DoubleValue
2.156

@<SCITEGIC>MOL_PROPERTY
Idih
SciTegic.value.DoubleValue
0.000

@<SCITEGIC>MOL_PROPERTY
Tether
SciTegic.value.DoubleValue
0.000

@<TRIPOS>MOLECULE
guest-s14_vm2.mol2 : vm2 ligand conformer 60
          26          25           1
SMALL
USER_CHARGES
 
@<TRIPOS>ATOM
       1    C1      20.645783   20.370011   20.510323 C.3        1 MOL1        -0.2400
       2    H1      19.720888   20.855589   20.845393 H          1 MOL1         0.0971
       3    H2      21.461925   20.690739   21.170668 H          1 MOL1         0.0971
       4    H3      20.865657   20.740291   19.500640 H          1 MOL1         0.0971
       5    C2      20.508441   18.830574   20.503793 C.3        1 MOL1        -0.1385
       6    H4      21.410678   18.396121   20.051045 H          1 MOL1         0.0960
       7    H5      19.668802   18.536871   19.858448 H          1 MOL1         0.0960
       8    C3      20.320622   18.226003   21.915959 C.3        1 MOL1        -0.1409
       9    H6      20.338885   17.130609   21.833100 H          1 MOL1         0.0960
      10    H7      21.178358   18.505310   22.541901 H          1 MOL1         0.0960
      11    C4      18.999046   18.660039   22.598548 C.3        1 MOL1        -0.1409
      12    H8      18.163250   18.475389   21.909771 H          1 MOL1         0.0960
      13    H9      19.007355   19.741870   22.782750 H          1 MOL1         0.0960
      14    C5      18.714770   17.909272   23.925128 C.3        1 MOL1        -0.1409
      15    H10     17.747858   18.248556   24.321855 H          1 MOL1         0.0960
      16    H11     18.595284   16.837568   23.714430 H          1 MOL1         0.0960
      17    C6      19.796697   18.089200   25.019037 C.3        1 MOL1        -0.1450
      18    H12     20.739931   17.632320   24.693416 H          1 MOL1         0.0960
      19    H13     19.484756   17.542325   25.918720 H          1 MOL1         0.0960
      20    C7      20.034532   19.566226   25.384472 C.3        1 MOL1         0.0172
      21    H14     20.385045   20.111904   24.504457 H          1 MOL1         0.0934
      22    H15     19.096956   20.017897   25.719553 H          1 MOL1         0.0934
      23    N1      21.061108   19.747676   26.483740 N.4        1 MOL1        -0.5956
      24    H16     21.975421   19.366476   26.219640 H          1 MOL1         0.3624
      25    H17     20.778236   19.280087   27.351208 H          1 MOL1         0.3624
      26    H18     21.204457   20.737570   26.711476 H          1 MOL1         0.3624
@<TRIPOS>BOND
    1     1     2    1
    2     1     3    1
    3     1     4    1
    4     1     5    1
    5     5     6    1
    6     5     7    1
    7     5     8    1
    8     8     9    1
    9     8    10    1
   10     8    11    1
   11    11    12    1
   12    11    13    1
   13    11    14    1
   14    14    15    1
   15    14    16    1
   16    14    17    1
   17    17    18    1
   18    17    19    1
   19    17    20    1
   20    20    21    1
   21    20    22    1
   22    20    23    1
   23    23    24    1
   24    23    25    1
   25    23    26    1
@<TRIPOS>SUBSTRUCTURE
       1 MOL1            1 RESIDUE      1      MOL     
@<SCITEGIC>MOL_PROPERTY
VM2 Rank
SciTegic.value.IntegerValue
60

@<SCITEGIC>MOL_PROPERTY
Conf_Id
SciTegic.value.IntegerValue
144

@<SCITEGIC>MOL_PROPERTY
Probability
SciTegic.value.DoubleValue
0.48

@<SCITEGIC>MOL_PROPERTY
Sum Probability
SciTegic.value.DoubleValue
87.96

@<SCITEGIC>MOL_PROPERTY
Delta G
SciTegic.value.DoubleValue
1.635

@<SCITEGIC>MOL_PROPERTY
G
SciTegic.value.DoubleValue
49.896

@<SCITEGIC>MOL_PROPERTY
E
SciTegic.value.DoubleValue
17.075

@<SCITEGIC>MOL_PROPERTY
-TS
SciTegic.value.DoubleValue
32.821

@<SCITEGIC>MOL_PROPERTY
U+W
SciTegic.value.DoubleValue
-4.386

@<SCITEGIC>MOL_PROPERTY
U
SciTegic.value.DoubleValue
49.567

@<SCITEGIC>MOL_PROPERTY
W
SciTegic.value.DoubleValue
-53.953

@<SCITEGIC>MOL_PROPERTY
W(PB)
SciTegic.value.DoubleValue
-56.238

@<SCITEGIC>MOL_PROPERTY
W(SA)
SciTegic.value.DoubleValue
2.285

@<SCITEGIC>MOL_PROPERTY
Valence
SciTegic.value.DoubleValue
3.380

@<SCITEGIC>MOL_PROPERTY
Coulomb
SciTegic.value.DoubleValue
45.516

@<SCITEGIC>MOL_PROPERTY
VdW
SciTegic.value.DoubleValue
0.670

@<SCITEGIC>MOL_PROPERTY
VdW6
SciTegic.value.DoubleValue
-8.071

@<SCITEGIC>MOL_PROPERTY
VdW12
SciTegic.value.DoubleValue
8.741

@<SCITEGIC>MOL_PROPERTY
Bond
SciTegic.value.DoubleValue
0.231

@<SCITEGIC>MOL_PROPERTY
Angle
SciTegic.value.DoubleValue
1.069

@<SCITEGIC>MOL_PROPERTY
Pdih
SciTegic.value.DoubleValue
2.080

@<SCITEGIC>MOL_PROPERTY
Idih
SciTegic.value.DoubleValue
0.000

@<SCITEGIC>MOL_PROPERTY
Tether
SciTegic.value.DoubleValue
0.000

@<TRIPOS>MOLECULE
guest-s14_vm2.mol2 : vm2 ligand conformer 61
          26          25           1
SMALL
USER_CHARGES
 
@<TRIPOS>ATOM
       1    C1      19.576744   19.170760   19.268359 C.3        1 MOL1        -0.2400
       2    H1      18.544844   19.539408   19.335584 H          1 MOL1         0.0971
       3    H2      20.210547   19.991902   18.908858 H          1 MOL1         0.0971
       4    H3      19.601062   18.372339   18.515384 H          1 MOL1         0.0971
       5    C2      20.068268   18.646679   20.634405 C.3        1 MOL1        -0.1385
       6    H4      19.436472   17.801994   20.938974 H          1 MOL1         0.0960
       7    H5      21.090960   18.258563   20.528758 H          1 MOL1         0.0960
       8    C3      20.038638   19.754571   21.713889 C.3        1 MOL1        -0.1409
       9    H6      20.608049   20.620849   21.349612 H          1 MOL1         0.0960
      10    H7      19.006952   20.103574   21.858788 H          1 MOL1         0.0960
      11    C4      20.634577   19.314819   23.073948 C.3        1 MOL1        -0.1409
      12    H8      20.695017   20.200503   23.719873 H          1 MOL1         0.0960
      13    H9      21.667071   18.968806   22.927671 H          1 MOL1         0.0960
      14    C5      19.809013   18.211738   23.783936 C.3        1 MOL1        -0.1409
      15    H10     18.769464   18.544564   23.903792 H          1 MOL1         0.0960
      16    H11     19.772081   17.315269   23.151820 H          1 MOL1         0.0960
      17    C6      20.393975   17.803198   25.159541 C.3        1 MOL1        -0.1450
      18    H12     21.406122   17.401700   25.017348 H          1 MOL1         0.0960
      19    H13     19.795841   16.982792   25.577858 H          1 MOL1         0.0960
      20    C7      20.457241   18.952653   26.186002 C.3        1 MOL1         0.0172
      21    H14     20.898403   18.584153   27.116101 H          1 MOL1         0.0934
      22    H15     21.093173   19.755593   25.804756 H          1 MOL1         0.0934
      23    N1      19.102544   19.544583   26.520920 N.4        1 MOL1        -0.5956
      24    H16     19.176531   20.299664   27.211250 H          1 MOL1         0.3624
      25    H17     18.466690   18.841990   26.912006 H          1 MOL1         0.3624
      26    H18     18.647283   19.937857   25.691415 H          1 MOL1         0.3624
@<TRIPOS>BOND
    1     1     2    1
    2     1     3    1
    3     1     4    1
    4     1     5    1
    5     5     6    1
    6     5     7    1
    7     5     8    1
    8     8     9    1
    9     8    10    1
   10     8    11    1
   11    11    12    1
   12    11    13    1
   13    11    14    1
   14    14    15    1
   15    14    16    1
   16    14    17    1
   17    17    18    1
   18    17    19    1
   19    17    20    1
   20    20    21    1
   21    20    22    1
   22    20    23    1
   23    23    24    1
   24    23    25    1
   25    23    26    1
@<TRIPOS>SUBSTRUCTURE
       1 MOL1            1 RESIDUE      1      MOL     
@<SCITEGIC>MOL_PROPERTY
VM2 Rank
SciTegic.value.IntegerValue
61

@<SCITEGIC>MOL_PROPERTY
Conf_Id
SciTegic.value.IntegerValue
273

@<SCITEGIC>MOL_PROPERTY
Probability
SciTegic.value.DoubleValue
0.47

@<SCITEGIC>MOL_PROPERTY
Sum Probability
SciTegic.value.DoubleValue
88.43

@<SCITEGIC>MOL_PROPERTY
Delta G
SciTegic.value.DoubleValue
1.643

@<SCITEGIC>MOL_PROPERTY
G
SciTegic.value.DoubleValue
49.904

@<SCITEGIC>MOL_PROPERTY
E
SciTegic.value.DoubleValue
17.197

@<SCITEGIC>MOL_PROPERTY
-TS
SciTegic.value.DoubleValue
32.708

@<SCITEGIC>MOL_PROPERTY
U+W
SciTegic.value.DoubleValue
-4.265

@<SCITEGIC>MOL_PROPERTY
U
SciTegic.value.DoubleValue
49.425

@<SCITEGIC>MOL_PROPERTY
W
SciTegic.value.DoubleValue
-53.690

@<SCITEGIC>MOL_PROPERTY
W(PB)
SciTegic.value.DoubleValue
-55.973

@<SCITEGIC>MOL_PROPERTY
W(SA)
SciTegic.value.DoubleValue
2.283

@<SCITEGIC>MOL_PROPERTY
Valence
SciTegic.value.DoubleValue
3.135

@<SCITEGIC>MOL_PROPERTY
Coulomb
SciTegic.value.DoubleValue
45.468

@<SCITEGIC>MOL_PROPERTY
VdW
SciTegic.value.DoubleValue
0.822

@<SCITEGIC>MOL_PROPERTY
VdW6
SciTegic.value.DoubleValue
-7.704

@<SCITEGIC>MOL_PROPERTY
VdW12
SciTegic.value.DoubleValue
8.526

@<SCITEGIC>MOL_PROPERTY
Bond
SciTegic.value.DoubleValue
0.222

@<SCITEGIC>MOL_PROPERTY
Angle
SciTegic.value.DoubleValue
0.941

@<SCITEGIC>MOL_PROPERTY
Pdih
SciTegic.value.DoubleValue
1.972

@<SCITEGIC>MOL_PROPERTY
Idih
SciTegic.value.DoubleValue
0.000

@<SCITEGIC>MOL_PROPERTY
Tether
SciTegic.value.DoubleValue
0.000

@<TRIPOS>MOLECULE
guest-s14_vm2.mol2 : vm2 ligand conformer 62
          26          25           1
SMALL
USER_CHARGES
 
@<TRIPOS>ATOM
       1    C1      19.464917   18.844538   19.413764 C.3        1 MOL1        -0.2400
       2    H1      18.866238   19.764643   19.412565 H          1 MOL1         0.0971
       3    H2      19.735432   18.619132   18.374076 H          1 MOL1         0.0971
       4    H3      18.833573   18.023267   19.774435 H          1 MOL1         0.0971
       5    C2      20.735254   19.008860   20.278906 C.3        1 MOL1        -0.1385
       6    H4      21.391437   19.751186   19.803305 H          1 MOL1         0.0960
       7    H5      21.298536   18.065318   20.292663 H          1 MOL1         0.0960
       8    C3      20.441568   19.464909   21.728840 C.3        1 MOL1        -0.1409
       9    H6      21.400734   19.684662   22.214437 H          1 MOL1         0.0960
      10    H7      19.880006   20.408990   21.709248 H          1 MOL1         0.0960
      11    C4      19.666601   18.411843   22.561545 C.3        1 MOL1        -0.1409
      12    H8      20.229590   17.468686   22.584458 H          1 MOL1         0.0960
      13    H9      18.711712   18.189406   22.068264 H          1 MOL1         0.0960
      14    C5      19.359558   18.868391   24.009411 C.3        1 MOL1        -0.1409
      15    H10     18.809193   19.819184   23.986498 H          1 MOL1         0.0960
      16    H11     18.682853   18.131576   24.461882 H          1 MOL1         0.0960
      17    C6      20.621963   19.016081   24.895866 C.3        1 MOL1        -0.1450
      18    H12     21.283639   19.784447   24.477779 H          1 MOL1         0.0960
      19    H13     21.191917   18.077516   24.899310 H          1 MOL1         0.0960
      20    C7      20.286110   19.418380   26.345075 C.3        1 MOL1         0.0172
      21    H14     21.213815   19.603063   26.893538 H          1 MOL1         0.0934
      22    H15     19.701008   20.341994   26.344609 H          1 MOL1         0.0934
      23    N1      19.505028   18.365998   27.107591 N.4        1 MOL1        -0.5956
      24    H16     19.311713   18.659436   28.071356 H          1 MOL1         0.3624
      25    H17     20.014851   17.478204   27.161625 H          1 MOL1         0.3624
      26    H18     18.600972   18.170080   26.666970 H          1 MOL1         0.3624
@<TRIPOS>BOND
    1     1     2    1
    2     1     3    1
    3     1     4    1
    4     1     5    1
    5     5     6    1
    6     5     7    1
    7     5     8    1
    8     8     9    1
    9     8    10    1
   10     8    11    1
   11    11    12    1
   12    11    13    1
   13    11    14    1
   14    14    15    1
   15    14    16    1
   16    14    17    1
   17    17    18    1
   18    17    19    1
   19    17    20    1
   20    20    21    1
   21    20    22    1
   22    20    23    1
   23    23    24    1
   24    23    25    1
   25    23    26    1
@<TRIPOS>SUBSTRUCTURE
       1 MOL1            1 RESIDUE      1      MOL     
@<SCITEGIC>MOL_PROPERTY
VM2 Rank
SciTegic.value.IntegerValue
62

@<SCITEGIC>MOL_PROPERTY
Conf_Id
SciTegic.value.IntegerValue
982

@<SCITEGIC>MOL_PROPERTY
Probability
SciTegic.value.DoubleValue
0.47

@<SCITEGIC>MOL_PROPERTY
Sum Probability
SciTegic.value.DoubleValue
88.90

@<SCITEGIC>MOL_PROPERTY
Delta G
SciTegic.value.DoubleValue
1.649

@<SCITEGIC>MOL_PROPERTY
G
SciTegic.value.DoubleValue
49.910

@<SCITEGIC>MOL_PROPERTY
E
SciTegic.value.DoubleValue
17.331

@<SCITEGIC>MOL_PROPERTY
-TS
SciTegic.value.DoubleValue
32.579

@<SCITEGIC>MOL_PROPERTY
U+W
SciTegic.value.DoubleValue
-4.131

@<SCITEGIC>MOL_PROPERTY
U
SciTegic.value.DoubleValue
49.323

@<SCITEGIC>MOL_PROPERTY
W
SciTegic.value.DoubleValue
-53.453

@<SCITEGIC>MOL_PROPERTY
W(PB)
SciTegic.value.DoubleValue
-55.749

@<SCITEGIC>MOL_PROPERTY
W(SA)
SciTegic.value.DoubleValue
2.296

@<SCITEGIC>MOL_PROPERTY
Valence
SciTegic.value.DoubleValue
3.408

@<SCITEGIC>MOL_PROPERTY
Coulomb
SciTegic.value.DoubleValue
44.893

@<SCITEGIC>MOL_PROPERTY
VdW
SciTegic.value.DoubleValue
1.021

@<SCITEGIC>MOL_PROPERTY
VdW6
SciTegic.value.DoubleValue
-7.482

@<SCITEGIC>MOL_PROPERTY
VdW12
SciTegic.value.DoubleValue
8.503

@<SCITEGIC>MOL_PROPERTY
Bond
SciTegic.value.DoubleValue
0.239

@<SCITEGIC>MOL_PROPERTY
Angle
SciTegic.value.DoubleValue
1.013

@<SCITEGIC>MOL_PROPERTY
Pdih
SciTegic.value.DoubleValue
2.156

@<SCITEGIC>MOL_PROPERTY
Idih
SciTegic.value.DoubleValue
0.000

@<SCITEGIC>MOL_PROPERTY
Tether
SciTegic.value.DoubleValue
0.000

@<TRIPOS>MOLECULE
guest-s14_vm2.mol2 : vm2 ligand conformer 63
          26          25           1
SMALL
USER_CHARGES
 
@<TRIPOS>ATOM
       1    C1      19.341505   19.834240   19.732762 C.3        1 MOL1        -0.2400
       2    H1      19.565943   20.871829   20.012476 H          1 MOL1         0.0971
       3    H2      20.039575   19.535038   18.940056 H          1 MOL1         0.0971
       4    H3      18.326810   19.809771   19.314663 H          1 MOL1         0.0971
       5    C2      19.450953   18.895174   20.952692 C.3        1 MOL1        -0.1385
       6    H4      19.192389   17.871127   20.649186 H          1 MOL1         0.0960
       7    H5      18.711905   19.201226   21.705054 H          1 MOL1         0.0960
       8    C3      20.872325   18.915753   21.562570 C.3        1 MOL1        -0.1409
       9    H6      21.601400   18.681723   20.774592 H          1 MOL1         0.0960
      10    H7      21.115681   19.930440   21.904016 H          1 MOL1         0.0960
      11    C4      21.066727   17.903301   22.721102 C.3        1 MOL1        -0.1409
      12    H8      22.105932   17.965283   23.072387 H          1 MOL1         0.0960
      13    H9      20.944361   16.885257   22.326347 H          1 MOL1         0.0960
      14    C5      20.115577   18.083603   23.932734 C.3        1 MOL1        -0.1409
      15    H10     19.076536   17.907977   23.624052 H          1 MOL1         0.0960
      16    H11     20.348559   17.299519   24.665113 H          1 MOL1         0.0960
      17    C6      20.232461   19.471654   24.610839 C.3        1 MOL1        -0.1450
      18    H12     19.958557   20.257575   23.895932 H          1 MOL1         0.0960
      19    H13     21.273473   19.661128   24.904265 H          1 MOL1         0.0960
      20    C7      19.316902   19.610376   25.842485 C.3        1 MOL1         0.0172
      21    H14     19.368341   20.635998   26.217985 H          1 MOL1         0.0934
      22    H15     18.281939   19.403496   25.557104 H          1 MOL1         0.0934
      23    N1      19.684549   18.684899   26.985816 N.4        1 MOL1        -0.5956
      24    H16     19.065456   18.813262   27.793611 H          1 MOL1         0.3624
      25    H17     20.642190   18.847058   27.313873 H          1 MOL1         0.3624
      26    H18     19.620545   17.699441   26.712686 H          1 MOL1         0.3624
@<TRIPOS>BOND
    1     1     2    1
    2     1     3    1
    3     1     4    1
    4     1     5    1
    5     5     6    1
    6     5     7    1
    7     5     8    1
    8     8     9    1
    9     8    10    1
   10     8    11    1
   11    11    12    1
   12    11    13    1
   13    11    14    1
   14    14    15    1
   15    14    16    1
   16    14    17    1
   17    17    18    1
   18    17    19    1
   19    17    20    1
   20    20    21    1
   21    20    22    1
   22    20    23    1
   23    23    24    1
   24    23    25    1
   25    23    26    1
@<TRIPOS>SUBSTRUCTURE
       1 MOL1            1 RESIDUE      1      MOL     
@<SCITEGIC>MOL_PROPERTY
VM2 Rank
SciTegic.value.IntegerValue
63

@<SCITEGIC>MOL_PROPERTY
Conf_Id
SciTegic.value.IntegerValue
157

@<SCITEGIC>MOL_PROPERTY
Probability
SciTegic.value.DoubleValue
0.46

@<SCITEGIC>MOL_PROPERTY
Sum Probability
SciTegic.value.DoubleValue
89.37

@<SCITEGIC>MOL_PROPERTY
Delta G
SciTegic.value.DoubleValue
1.653

@<SCITEGIC>MOL_PROPERTY
G
SciTegic.value.DoubleValue
49.914

@<SCITEGIC>MOL_PROPERTY
E
SciTegic.value.DoubleValue
17.024

@<SCITEGIC>MOL_PROPERTY
-TS
SciTegic.value.DoubleValue
32.890

@<SCITEGIC>MOL_PROPERTY
U+W
SciTegic.value.DoubleValue
-4.438

@<SCITEGIC>MOL_PROPERTY
U
SciTegic.value.DoubleValue
49.231

@<SCITEGIC>MOL_PROPERTY
W
SciTegic.value.DoubleValue
-53.665

@<SCITEGIC>MOL_PROPERTY
W(PB)
SciTegic.value.DoubleValue
-55.961

@<SCITEGIC>MOL_PROPERTY
W(SA)
SciTegic.value.DoubleValue
2.296

@<SCITEGIC>MOL_PROPERTY
Valence
SciTegic.value.DoubleValue
3.277

@<SCITEGIC>MOL_PROPERTY
Coulomb
SciTegic.value.DoubleValue
45.175

@<SCITEGIC>MOL_PROPERTY
VdW
SciTegic.value.DoubleValue
0.779

@<SCITEGIC>MOL_PROPERTY
VdW6
SciTegic.value.DoubleValue
-7.944

@<SCITEGIC>MOL_PROPERTY
VdW12
SciTegic.value.DoubleValue
8.722

@<SCITEGIC>MOL_PROPERTY
Bond
SciTegic.value.DoubleValue
0.239

@<SCITEGIC>MOL_PROPERTY
Angle
SciTegic.value.DoubleValue
1.155

@<SCITEGIC>MOL_PROPERTY
Pdih
SciTegic.value.DoubleValue
1.883

@<SCITEGIC>MOL_PROPERTY
Idih
SciTegic.value.DoubleValue
0.000

@<SCITEGIC>MOL_PROPERTY
Tether
SciTegic.value.DoubleValue
0.000

@<TRIPOS>MOLECULE
guest-s14_vm2.mol2 : vm2 ligand conformer 64
          26          25           1
SMALL
USER_CHARGES
 
@<TRIPOS>ATOM
       1    C1      20.919238   20.087372   20.085897 C.3        1 MOL1        -0.2400
       2    H1      20.427384   19.757172   19.161639 H          1 MOL1         0.0971
       3    H2      20.483299   21.051084   20.379868 H          1 MOL1         0.0971
       4    H3      21.981160   20.252063   19.861836 H          1 MOL1         0.0971
       5    C2      20.755060   19.039637   21.207180 C.3        1 MOL1        -0.1385
       6    H4      21.226031   18.096444   20.897006 H          1 MOL1         0.0960
       7    H5      21.292571   19.386343   22.099710 H          1 MOL1         0.0960
       8    C3      19.265542   18.793395   21.543945 C.3        1 MOL1        -0.1409
       9    H6      18.804591   19.726674   21.893337 H          1 MOL1         0.0960
      10    H7      18.732165   18.521294   20.622703 H          1 MOL1         0.0960
      11    C4      19.041862   17.667531   22.586611 C.3        1 MOL1        -0.1409
      12    H8      19.401869   16.717782   22.167595 H          1 MOL1         0.0960
      13    H9      17.961480   17.537585   22.738505 H          1 MOL1         0.0960
      14    C5      19.719286   17.893236   23.963021 C.3        1 MOL1        -0.1409
      15    H10     19.488545   17.033162   24.606835 H          1 MOL1         0.0960
      16    H11     20.810030   17.896143   23.842383 H          1 MOL1         0.0960
      17    C6      19.257044   19.190136   24.672688 C.3        1 MOL1        -0.1450
      18    H12     18.160056   19.209135   24.717048 H          1 MOL1         0.0960
      19    H13     19.564750   20.072412   24.097137 H          1 MOL1         0.0960
      20    C7      19.806245   19.307665   26.107348 C.3        1 MOL1         0.0172
      21    H14     19.385780   20.196652   26.585308 H          1 MOL1         0.0934
      22    H15     19.504995   18.432710   26.689654 H          1 MOL1         0.0934
      23    N1      21.316723   19.420027   26.174309 N.4        1 MOL1        -0.5956
      24    H16     21.660506   20.239958   25.664050 H          1 MOL1         0.3624
      25    H17     21.776432   18.597146   25.772586 H          1 MOL1         0.3624
      26    H18     21.649012   19.507619   27.140859 H          1 MOL1         0.3624
@<TRIPOS>BOND
    1     1     2    1
    2     1     3    1
    3     1     4    1
    4     1     5    1
    5     5     6    1
    6     5     7    1
    7     5     8    1
    8     8     9    1
    9     8    10    1
   10     8    11    1
   11    11    12    1
   12    11    13    1
   13    11    14    1
   14    14    15    1
   15    14    16    1
   16    14    17    1
   17    17    18    1
   18    17    19    1
   19    17    20    1
   20    20    21    1
   21    20    22    1
   22    20    23    1
   23    23    24    1
   24    23    25    1
   25    23    26    1
@<TRIPOS>SUBSTRUCTURE
       1 MOL1            1 RESIDUE      1      MOL     
@<SCITEGIC>MOL_PROPERTY
VM2 Rank
SciTegic.value.IntegerValue
64

@<SCITEGIC>MOL_PROPERTY
Conf_Id
SciTegic.value.IntegerValue
271

@<SCITEGIC>MOL_PROPERTY
Probability
SciTegic.value.DoubleValue
0.46

@<SCITEGIC>MOL_PROPERTY
Sum Probability
SciTegic.value.DoubleValue
89.82

@<SCITEGIC>MOL_PROPERTY
Delta G
SciTegic.value.DoubleValue
1.662

@<SCITEGIC>MOL_PROPERTY
G
SciTegic.value.DoubleValue
49.923

@<SCITEGIC>MOL_PROPERTY
E
SciTegic.value.DoubleValue
17.018

@<SCITEGIC>MOL_PROPERTY
-TS
SciTegic.value.DoubleValue
32.905

@<SCITEGIC>MOL_PROPERTY
U+W
SciTegic.value.DoubleValue
-4.444

@<SCITEGIC>MOL_PROPERTY
U
SciTegic.value.DoubleValue
49.677

@<SCITEGIC>MOL_PROPERTY
W
SciTegic.value.DoubleValue
-54.121

@<SCITEGIC>MOL_PROPERTY
W(PB)
SciTegic.value.DoubleValue
-56.390

@<SCITEGIC>MOL_PROPERTY
W(SA)
SciTegic.value.DoubleValue
2.269

@<SCITEGIC>MOL_PROPERTY
Valence
SciTegic.value.DoubleValue
3.238

@<SCITEGIC>MOL_PROPERTY
Coulomb
SciTegic.value.DoubleValue
45.761

@<SCITEGIC>MOL_PROPERTY
VdW
SciTegic.value.DoubleValue
0.679

@<SCITEGIC>MOL_PROPERTY
VdW6
SciTegic.value.DoubleValue
-8.038

@<SCITEGIC>MOL_PROPERTY
VdW12
SciTegic.value.DoubleValue
8.717

@<SCITEGIC>MOL_PROPERTY
Bond
SciTegic.value.DoubleValue
0.234

@<SCITEGIC>MOL_PROPERTY
Angle
SciTegic.value.DoubleValue
1.079

@<SCITEGIC>MOL_PROPERTY
Pdih
SciTegic.value.DoubleValue
1.925

@<SCITEGIC>MOL_PROPERTY
Idih
SciTegic.value.DoubleValue
0.000

@<SCITEGIC>MOL_PROPERTY
Tether
SciTegic.value.DoubleValue
0.000

@<TRIPOS>MOLECULE
guest-s14_vm2.mol2 : vm2 ligand conformer 65
          26          25           1
SMALL
USER_CHARGES
 
@<TRIPOS>ATOM
       1    C1      18.562570   18.996212   20.440718 C.3        1 MOL1        -0.2400
       2    H1      18.464079   20.026816   20.803548 H          1 MOL1         0.0971
       3    H2      18.183049   18.971324   19.411031 H          1 MOL1         0.0971
       4    H3      17.916873   18.352616   21.052167 H          1 MOL1         0.0971
       5    C2      20.030825   18.515805   20.487676 C.3        1 MOL1        -0.1385
       6    H4      20.660230   19.191210   19.891520 H          1 MOL1         0.0960
       7    H5      20.096724   17.529819   20.006788 H          1 MOL1         0.0960
       8    C3      20.594239   18.406417   21.924895 C.3        1 MOL1        -0.1409
       9    H6      19.971833   17.709351   22.501293 H          1 MOL1         0.0960
      10    H7      21.597065   17.960413   21.874797 H          1 MOL1         0.0960
      11    C4      20.682732   19.770327   22.654825 C.3        1 MOL1        -0.1409
      12    H8      19.677227   20.183480   22.805233 H          1 MOL1         0.0960
      13    H9      21.212557   20.486464   22.011784 H          1 MOL1         0.0960
      14    C5      21.422240   19.694542   24.015583 C.3        1 MOL1        -0.1409
      15    H10     22.463268   19.388091   23.843619 H          1 MOL1         0.0960
      16    H11     21.472012   20.704197   24.446332 H          1 MOL1         0.0960
      17    C6      20.781086   18.738219   25.051895 C.3        1 MOL1        -0.1450
      18    H12     21.364106   18.781319   25.981434 H          1 MOL1         0.0960
      19    H13     20.845209   17.701749   24.696826 H          1 MOL1         0.0960
      20    C7      19.314157   19.091184   25.360521 C.3        1 MOL1         0.0172
      21    H14     19.252147   20.120168   25.724779 H          1 MOL1         0.0934
      22    H15     18.716137   19.011438   24.448894 H          1 MOL1         0.0934
      23    N1      18.693151   18.186295   26.404888 N.4        1 MOL1        -0.5956
      24    H16     18.696314   17.204295   26.110450 H          1 MOL1         0.3624
      25    H17     17.717117   18.438103   26.595292 H          1 MOL1         0.3624
      26    H18     19.193436   18.235143   27.298468 H          1 MOL1         0.3624
@<TRIPOS>BOND
    1     1     2    1
    2     1     3    1
    3     1     4    1
    4     1     5    1
    5     5     6    1
    6     5     7    1
    7     5     8    1
    8     8     9    1
    9     8    10    1
   10     8    11    1
   11    11    12    1
   12    11    13    1
   13    11    14    1
   14    14    15    1
   15    14    16    1
   16    14    17    1
   17    17    18    1
   18    17    19    1
   19    17    20    1
   20    20    21    1
   21    20    22    1
   22    20    23    1
   23    23    24    1
   24    23    25    1
   25    23    26    1
@<TRIPOS>SUBSTRUCTURE
       1 MOL1            1 RESIDUE      1      MOL     
@<SCITEGIC>MOL_PROPERTY
VM2 Rank
SciTegic.value.IntegerValue
65

@<SCITEGIC>MOL_PROPERTY
Conf_Id
SciTegic.value.IntegerValue
446

@<SCITEGIC>MOL_PROPERTY
Probability
SciTegic.value.DoubleValue
0.46

@<SCITEGIC>MOL_PROPERTY
Sum Probability
SciTegic.value.DoubleValue
90.28

@<SCITEGIC>MOL_PROPERTY
Delta G
SciTegic.value.DoubleValue
1.664

@<SCITEGIC>MOL_PROPERTY
G
SciTegic.value.DoubleValue
49.926

@<SCITEGIC>MOL_PROPERTY
E
SciTegic.value.DoubleValue
17.105

@<SCITEGIC>MOL_PROPERTY
-TS
SciTegic.value.DoubleValue
32.820

@<SCITEGIC>MOL_PROPERTY
U+W
SciTegic.value.DoubleValue
-4.356

@<SCITEGIC>MOL_PROPERTY
U
SciTegic.value.DoubleValue
49.566

@<SCITEGIC>MOL_PROPERTY
W
SciTegic.value.DoubleValue
-53.923

@<SCITEGIC>MOL_PROPERTY
W(PB)
SciTegic.value.DoubleValue
-56.210

@<SCITEGIC>MOL_PROPERTY
W(SA)
SciTegic.value.DoubleValue
2.287

@<SCITEGIC>MOL_PROPERTY
Valence
SciTegic.value.DoubleValue
3.381

@<SCITEGIC>MOL_PROPERTY
Coulomb
SciTegic.value.DoubleValue
45.516

@<SCITEGIC>MOL_PROPERTY
VdW
SciTegic.value.DoubleValue
0.670

@<SCITEGIC>MOL_PROPERTY
VdW6
SciTegic.value.DoubleValue
-8.070

@<SCITEGIC>MOL_PROPERTY
VdW12
SciTegic.value.DoubleValue
8.741

@<SCITEGIC>MOL_PROPERTY
Bond
SciTegic.value.DoubleValue
0.231

@<SCITEGIC>MOL_PROPERTY
Angle
SciTegic.value.DoubleValue
1.069

@<SCITEGIC>MOL_PROPERTY
Pdih
SciTegic.value.DoubleValue
2.080

@<SCITEGIC>MOL_PROPERTY
Idih
SciTegic.value.DoubleValue
0.000

@<SCITEGIC>MOL_PROPERTY
Tether
SciTegic.value.DoubleValue
0.000

@<TRIPOS>MOLECULE
guest-s14_vm2.mol2 : vm2 ligand conformer 66
          26          25           1
SMALL
USER_CHARGES
 
@<TRIPOS>ATOM
       1    C1      19.945039   19.622021   19.485158 C.3        1 MOL1        -0.2400
       2    H1      18.877511   19.723649   19.715898 H          1 MOL1         0.0971
       3    H2      20.427458   20.594143   19.650268 H          1 MOL1         0.0971
       4    H3      20.029329   19.382895   18.417147 H          1 MOL1         0.0971
       5    C2      20.610019   18.519016   20.339767 C.3        1 MOL1        -0.1385
       6    H4      21.638425   18.368743   19.982542 H          1 MOL1         0.0960
       7    H5      20.088217   17.564517   20.183561 H          1 MOL1         0.0960
       8    C3      20.654597   18.850457   21.851245 C.3        1 MOL1        -0.1409
       9    H6      21.259161   18.081362   22.348662 H          1 MOL1         0.0960
      10    H7      21.179660   19.803655   22.002024 H          1 MOL1         0.0960
      11    C4      19.253106   18.914716   22.510163 C.3        1 MOL1        -0.1409
      12    H8      18.728248   17.961331   22.359850 H          1 MOL1         0.0960
      13    H9      18.649101   19.682116   22.009237 H          1 MOL1         0.0960
      14    C5      19.295654   19.251378   24.021176 C.3        1 MOL1        -0.1409
      15    H10     19.815904   20.207827   24.164845 H          1 MOL1         0.0960
      16    H11     18.265400   19.403568   24.371916 H          1 MOL1         0.0960
      17    C6      19.960170   18.149017   24.883426 C.3        1 MOL1        -0.1450
      18    H12     21.023687   18.052018   24.631893 H          1 MOL1         0.0960
      19    H13     19.493221   17.180663   24.659800 H          1 MOL1         0.0960
      20    C7      19.824039   18.418628   26.394309 C.3        1 MOL1         0.0172
      21    H14     18.767122   18.513714   26.657517 H          1 MOL1         0.0934
      22    H15     20.240013   17.575502   26.952570 H          1 MOL1         0.0934
      23    N1      20.538376   19.673766   26.855757 N.4        1 MOL1        -0.5956
      24    H16     20.437887   19.819348   27.866206 H          1 MOL1         0.3624
      25    H17     20.170345   20.511142   26.393899 H          1 MOL1         0.3624
      26    H18     21.543374   19.634722   26.657270 H          1 MOL1         0.3624
@<TRIPOS>BOND
    1     1     2    1
    2     1     3    1
    3     1     4    1
    4     1     5    1
    5     5     6    1
    6     5     7    1
    7     5     8    1
    8     8     9    1
    9     8    10    1
   10     8    11    1
   11    11    12    1
   12    11    13    1
   13    11    14    1
   14    14    15    1
   15    14    16    1
   16    14    17    1
   17    17    18    1
   18    17    19    1
   19    17    20    1
   20    20    21    1
   21    20    22    1
   22    20    23    1
   23    23    24    1
   24    23    25    1
   25    23    26    1
@<TRIPOS>SUBSTRUCTURE
       1 MOL1            1 RESIDUE      1      MOL     
@<SCITEGIC>MOL_PROPERTY
VM2 Rank
SciTegic.value.IntegerValue
66

@<SCITEGIC>MOL_PROPERTY
Conf_Id
SciTegic.value.IntegerValue
226

@<SCITEGIC>MOL_PROPERTY
Probability
SciTegic.value.DoubleValue
0.45

@<SCITEGIC>MOL_PROPERTY
Sum Probability
SciTegic.value.DoubleValue
90.73

@<SCITEGIC>MOL_PROPERTY
Delta G
SciTegic.value.DoubleValue
1.669

@<SCITEGIC>MOL_PROPERTY
G
SciTegic.value.DoubleValue
49.930

@<SCITEGIC>MOL_PROPERTY
E
SciTegic.value.DoubleValue
17.305

@<SCITEGIC>MOL_PROPERTY
-TS
SciTegic.value.DoubleValue
32.626

@<SCITEGIC>MOL_PROPERTY
U+W
SciTegic.value.DoubleValue
-4.157

@<SCITEGIC>MOL_PROPERTY
U
SciTegic.value.DoubleValue
49.401

@<SCITEGIC>MOL_PROPERTY
W
SciTegic.value.DoubleValue
-53.558

@<SCITEGIC>MOL_PROPERTY
W(PB)
SciTegic.value.DoubleValue
-55.887

@<SCITEGIC>MOL_PROPERTY
W(SA)
SciTegic.value.DoubleValue
2.328

@<SCITEGIC>MOL_PROPERTY
Valence
SciTegic.value.DoubleValue
3.370

@<SCITEGIC>MOL_PROPERTY
Coulomb
SciTegic.value.DoubleValue
45.066

@<SCITEGIC>MOL_PROPERTY
VdW
SciTegic.value.DoubleValue
0.965

@<SCITEGIC>MOL_PROPERTY
VdW6
SciTegic.value.DoubleValue
-7.528

@<SCITEGIC>MOL_PROPERTY
VdW12
SciTegic.value.DoubleValue
8.494

@<SCITEGIC>MOL_PROPERTY
Bond
SciTegic.value.DoubleValue
0.232

@<SCITEGIC>MOL_PROPERTY
Angle
SciTegic.value.DoubleValue
0.963

@<SCITEGIC>MOL_PROPERTY
Pdih
SciTegic.value.DoubleValue
2.174

@<SCITEGIC>MOL_PROPERTY
Idih
SciTegic.value.DoubleValue
0.000

@<SCITEGIC>MOL_PROPERTY
Tether
SciTegic.value.DoubleValue
0.000

@<TRIPOS>MOLECULE
guest-s14_vm2.mol2 : vm2 ligand conformer 67
          26          25           1
SMALL
USER_CHARGES
 
@<TRIPOS>ATOM
       1    C1      20.141545   19.543838   19.287442 C.3        1 MOL1        -0.2400
       2    H1      19.155538   19.295391   18.873574 H          1 MOL1         0.0971
       3    H2      20.203778   20.634963   19.391415 H          1 MOL1         0.0971
       4    H3      20.900888   19.230788   18.559131 H          1 MOL1         0.0971
       5    C2      20.366838   18.843928   20.644535 C.3        1 MOL1        -0.1385
       6    H4      21.376252   19.082996   21.004188 H          1 MOL1         0.0960
       7    H5      20.327918   17.754792   20.503243 H          1 MOL1         0.0960
       8    C3      19.309945   19.273467   21.689551 C.3        1 MOL1        -0.1409
       9    H6      19.386575   20.354264   21.871711 H          1 MOL1         0.0960
      10    H7      18.307899   19.102155   21.272514 H          1 MOL1         0.0960
      11    C4      19.417079   18.510908   23.033171 C.3        1 MOL1        -0.1409
      12    H8      19.337009   17.430611   22.849560 H          1 MOL1         0.0960
      13    H9      18.549592   18.784059   23.648121 H          1 MOL1         0.0960
      14    C5      20.721200   18.813315   23.814352 C.3        1 MOL1        -0.1409
      15    H10     21.588697   18.513505   23.212560 H          1 MOL1         0.0960
      16    H11     20.817609   19.895750   23.971962 H          1 MOL1         0.0960
      17    C6      20.803014   18.073067   25.173290 C.3        1 MOL1        -0.1450
      18    H12     21.771913   18.286604   25.643881 H          1 MOL1         0.0960
      19    H13     20.781295   16.989443   24.996795 H          1 MOL1         0.0960
      20    C7      19.674571   18.436505   26.159901 C.3        1 MOL1         0.0172
      21    H14     18.705151   18.180206   25.725153 H          1 MOL1         0.0934
      22    H15     19.796779   17.857783   27.079490 H          1 MOL1         0.0934
      23    N1      19.646808   19.903971   26.538757 N.4        1 MOL1        -0.5956
      24    H16     19.502659   20.502341   25.719501 H          1 MOL1         0.3624
      25    H17     20.523583   20.199433   26.980190 H          1 MOL1         0.3624
      26    H18     18.892105   20.112446   27.201430 H          1 MOL1         0.3624
@<TRIPOS>BOND
    1     1     2    1
    2     1     3    1
    3     1     4    1
    4     1     5    1
    5     5     6    1
    6     5     7    1
    7     5     8    1
    8     8     9    1
    9     8    10    1
   10     8    11    1
   11    11    12    1
   12    11    13    1
   13    11    14    1
   14    14    15    1
   15    14    16    1
   16    14    17    1
   17    17    18    1
   18    17    19    1
   19    17    20    1
   20    20    21    1
   21    20    22    1
   22    20    23    1
   23    23    24    1
   24    23    25    1
   25    23    26    1
@<TRIPOS>SUBSTRUCTURE
       1 MOL1            1 RESIDUE      1      MOL     
@<SCITEGIC>MOL_PROPERTY
VM2 Rank
SciTegic.value.IntegerValue
67

@<SCITEGIC>MOL_PROPERTY
Conf_Id
SciTegic.value.IntegerValue
1080

@<SCITEGIC>MOL_PROPERTY
Probability
SciTegic.value.DoubleValue
0.45

@<SCITEGIC>MOL_PROPERTY
Sum Probability
SciTegic.value.DoubleValue
91.18

@<SCITEGIC>MOL_PROPERTY
Delta G
SciTegic.value.DoubleValue
1.674

@<SCITEGIC>MOL_PROPERTY
G
SciTegic.value.DoubleValue
49.935

@<SCITEGIC>MOL_PROPERTY
E
SciTegic.value.DoubleValue
17.227

@<SCITEGIC>MOL_PROPERTY
-TS
SciTegic.value.DoubleValue
32.708

@<SCITEGIC>MOL_PROPERTY
U+W
SciTegic.value.DoubleValue
-4.235

@<SCITEGIC>MOL_PROPERTY
U
SciTegic.value.DoubleValue
49.425

@<SCITEGIC>MOL_PROPERTY
W
SciTegic.value.DoubleValue
-53.659

@<SCITEGIC>MOL_PROPERTY
W(PB)
SciTegic.value.DoubleValue
-55.946

@<SCITEGIC>MOL_PROPERTY
W(SA)
SciTegic.value.DoubleValue
2.286

@<SCITEGIC>MOL_PROPERTY
Valence
SciTegic.value.DoubleValue
3.135

@<SCITEGIC>MOL_PROPERTY
Coulomb
SciTegic.value.DoubleValue
45.468

@<SCITEGIC>MOL_PROPERTY
VdW
SciTegic.value.DoubleValue
0.822

@<SCITEGIC>MOL_PROPERTY
VdW6
SciTegic.value.DoubleValue
-7.705

@<SCITEGIC>MOL_PROPERTY
VdW12
SciTegic.value.DoubleValue
8.527

@<SCITEGIC>MOL_PROPERTY
Bond
SciTegic.value.DoubleValue
0.222

@<SCITEGIC>MOL_PROPERTY
Angle
SciTegic.value.DoubleValue
0.941

@<SCITEGIC>MOL_PROPERTY
Pdih
SciTegic.value.DoubleValue
1.972

@<SCITEGIC>MOL_PROPERTY
Idih
SciTegic.value.DoubleValue
0.000

@<SCITEGIC>MOL_PROPERTY
Tether
SciTegic.value.DoubleValue
0.000

@<TRIPOS>MOLECULE
guest-s14_vm2.mol2 : vm2 ligand conformer 68
          26          25           1
SMALL
USER_CHARGES
 
@<TRIPOS>ATOM
       1    C1      20.346405   18.263714   19.485280 C.3        1 MOL1        -0.2400
       2    H1      21.111880   18.928366   19.063965 H          1 MOL1         0.0971
       3    H2      20.561721   17.243013   19.143461 H          1 MOL1         0.0971
       4    H3      19.372698   18.558921   19.072983 H          1 MOL1         0.0971
       5    C2      20.339185   18.331963   21.027188 C.3        1 MOL1        -0.1385
       6    H4      21.315287   18.003411   21.410471 H          1 MOL1         0.0960
       7    H5      19.591263   17.625629   21.411070 H          1 MOL1         0.0960
       8    C3      20.033424   19.761662   21.532857 C.3        1 MOL1        -0.1409
       9    H6      20.745904   20.461940   21.075345 H          1 MOL1         0.0960
      10    H7      19.035884   20.070311   21.190965 H          1 MOL1         0.0960
      11    C4      20.123067   19.906349   23.071793 C.3        1 MOL1        -0.1409
      12    H8      20.007481   20.968464   23.328312 H          1 MOL1         0.0960
      13    H9      21.128849   19.616025   23.403612 H          1 MOL1         0.0960
      14    C5      19.051020   19.085153   23.831900 C.3        1 MOL1        -0.1409
      15    H10     18.059338   19.319385   23.420987 H          1 MOL1         0.0960
      16    H11     19.206191   18.011847   23.664916 H          1 MOL1         0.0960
      17    C6      19.034501   19.373138   25.354062 C.3        1 MOL1        -0.1450
      18    H12     18.232865   18.789407   25.825698 H          1 MOL1         0.0960
      19    H13     18.782284   20.428910   25.520152 H          1 MOL1         0.0960
      20    C7      20.368451   19.065863   26.064390 C.3        1 MOL1         0.0172
      21    H14     21.166543   19.674562   25.631675 H          1 MOL1         0.0934
      22    H15     20.282880   19.322050   27.123890 H          1 MOL1         0.0934
      23    N1      20.784948   17.611158   25.973530 N.4        1 MOL1        -0.5956
      24    H16     21.670729   17.437257   26.460720 H          1 MOL1         0.3624
      25    H17     20.912275   17.315377   25.000823 H          1 MOL1         0.3624
      26    H18     20.085769   16.988780   26.391527 H          1 MOL1         0.3624
@<TRIPOS>BOND
    1     1     2    1
    2     1     3    1
    3     1     4    1
    4     1     5    1
    5     5     6    1
    6     5     7    1
    7     5     8    1
    8     8     9    1
    9     8    10    1
   10     8    11    1
   11    11    12    1
   12    11    13    1
   13    11    14    1
   14    14    15    1
   15    14    16    1
   16    14    17    1
   17    17    18    1
   18    17    19    1
   19    17    20    1
   20    20    21    1
   21    20    22    1
   22    20    23    1
   23    23    24    1
   24    23    25    1
   25    23    26    1
@<TRIPOS>SUBSTRUCTURE
       1 MOL1            1 RESIDUE      1      MOL     
@<SCITEGIC>MOL_PROPERTY
VM2 Rank
SciTegic.value.IntegerValue
68

@<SCITEGIC>MOL_PROPERTY
Conf_Id
SciTegic.value.IntegerValue
828

@<SCITEGIC>MOL_PROPERTY
Probability
SciTegic.value.DoubleValue
0.43

@<SCITEGIC>MOL_PROPERTY
Sum Probability
SciTegic.value.DoubleValue
91.61

@<SCITEGIC>MOL_PROPERTY
Delta G
SciTegic.value.DoubleValue
1.697

@<SCITEGIC>MOL_PROPERTY
G
SciTegic.value.DoubleValue
49.959

@<SCITEGIC>MOL_PROPERTY
E
SciTegic.value.DoubleValue
17.208

@<SCITEGIC>MOL_PROPERTY
-TS
SciTegic.value.DoubleValue
32.751

@<SCITEGIC>MOL_PROPERTY
U+W
SciTegic.value.DoubleValue
-4.254

@<SCITEGIC>MOL_PROPERTY
U
SciTegic.value.DoubleValue
49.691

@<SCITEGIC>MOL_PROPERTY
W
SciTegic.value.DoubleValue
-53.945

@<SCITEGIC>MOL_PROPERTY
W(PB)
SciTegic.value.DoubleValue
-56.226

@<SCITEGIC>MOL_PROPERTY
W(SA)
SciTegic.value.DoubleValue
2.281

@<SCITEGIC>MOL_PROPERTY
Valence
SciTegic.value.DoubleValue
3.067

@<SCITEGIC>MOL_PROPERTY
Coulomb
SciTegic.value.DoubleValue
45.912

@<SCITEGIC>MOL_PROPERTY
VdW
SciTegic.value.DoubleValue
0.712

@<SCITEGIC>MOL_PROPERTY
VdW6
SciTegic.value.DoubleValue
-7.810

@<SCITEGIC>MOL_PROPERTY
VdW12
SciTegic.value.DoubleValue
8.522

@<SCITEGIC>MOL_PROPERTY
Bond
SciTegic.value.DoubleValue
0.215

@<SCITEGIC>MOL_PROPERTY
Angle
SciTegic.value.DoubleValue
0.854

@<SCITEGIC>MOL_PROPERTY
Pdih
SciTegic.value.DoubleValue
1.998

@<SCITEGIC>MOL_PROPERTY
Idih
SciTegic.value.DoubleValue
0.000

@<SCITEGIC>MOL_PROPERTY
Tether
SciTegic.value.DoubleValue
0.000

@<TRIPOS>MOLECULE
guest-s14_vm2.mol2 : vm2 ligand conformer 69
          26          25           1
SMALL
USER_CHARGES
 
@<TRIPOS>ATOM
       1    C1      18.883257   18.473641   19.956486 C.3        1 MOL1        -0.2400
       2    H1      18.727743   19.406019   19.398197 H          1 MOL1         0.0971
       3    H2      19.064967   17.671919   19.229002 H          1 MOL1         0.0971
       4    H3      17.955285   18.237663   20.493496 H          1 MOL1         0.0971
       5    C2      20.071330   18.602792   20.933093 C.3        1 MOL1        -0.1385
       6    H4      20.989453   18.808782   20.365421 H          1 MOL1         0.0960
       7    H5      20.220606   17.641355   21.442195 H          1 MOL1         0.0960
       8    C3      19.836773   19.725331   21.971059 C.3        1 MOL1        -0.1409
       9    H6      19.624248   20.663203   21.439635 H          1 MOL1         0.0960
      10    H7      18.938010   19.503646   22.561503 H          1 MOL1         0.0960
      11    C4      21.046145   19.961151   22.912261 C.3        1 MOL1        -0.1409
      12    H8      20.818237   20.805837   23.576263 H          1 MOL1         0.0960
      13    H9      21.906805   20.283846   22.310350 H          1 MOL1         0.0960
      14    C5      21.470035   18.736006   23.766703 C.3        1 MOL1        -0.1409
      15    H10     21.866177   17.949281   23.110994 H          1 MOL1         0.0960
      16    H11     22.308766   19.032784   24.411527 H          1 MOL1         0.0960
      17    C6      20.346544   18.140508   24.650951 C.3        1 MOL1        -0.1450
      18    H12     20.755339   17.297383   25.223464 H          1 MOL1         0.0960
      19    H13     19.550639   17.726485   24.018800 H          1 MOL1         0.0960
      20    C7      19.750739   19.171134   25.627745 C.3        1 MOL1         0.0172
      21    H14     20.541924   19.572477   26.266709 H          1 MOL1         0.0934
      22    H15     19.308364   19.998259   25.066409 H          1 MOL1         0.0934
      23    N1      18.676178   18.588436   26.522703 N.4        1 MOL1        -0.5956
      24    H16     19.035089   17.821066   27.100170 H          1 MOL1         0.3624
      25    H17     17.888517   18.216586   25.982030 H          1 MOL1         0.3624
      26    H18     18.292984   19.290835   27.164663 H          1 MOL1         0.3624
@<TRIPOS>BOND
    1     1     2    1
    2     1     3    1
    3     1     4    1
    4     1     5    1
    5     5     6    1
    6     5     7    1
    7     5     8    1
    8     8     9    1
    9     8    10    1
   10     8    11    1
   11    11    12    1
   12    11    13    1
   13    11    14    1
   14    14    15    1
   15    14    16    1
   16    14    17    1
   17    17    18    1
   18    17    19    1
   19    17    20    1
   20    20    21    1
   21    20    22    1
   22    20    23    1
   23    23    24    1
   24    23    25    1
   25    23    26    1
@<TRIPOS>SUBSTRUCTURE
       1 MOL1            1 RESIDUE      1      MOL     
@<SCITEGIC>MOL_PROPERTY
VM2 Rank
SciTegic.value.IntegerValue
69

@<SCITEGIC>MOL_PROPERTY
Conf_Id
SciTegic.value.IntegerValue
1339

@<SCITEGIC>MOL_PROPERTY
Probability
SciTegic.value.DoubleValue
0.43

@<SCITEGIC>MOL_PROPERTY
Sum Probability
SciTegic.value.DoubleValue
92.04

@<SCITEGIC>MOL_PROPERTY
Delta G
SciTegic.value.DoubleValue
1.702

@<SCITEGIC>MOL_PROPERTY
G
SciTegic.value.DoubleValue
49.963

@<SCITEGIC>MOL_PROPERTY
E
SciTegic.value.DoubleValue
16.926

@<SCITEGIC>MOL_PROPERTY
-TS
SciTegic.value.DoubleValue
33.038

@<SCITEGIC>MOL_PROPERTY
U+W
SciTegic.value.DoubleValue
-4.536

@<SCITEGIC>MOL_PROPERTY
U
SciTegic.value.DoubleValue
49.453

@<SCITEGIC>MOL_PROPERTY
W
SciTegic.value.DoubleValue
-53.989

@<SCITEGIC>MOL_PROPERTY
W(PB)
SciTegic.value.DoubleValue
-56.276

@<SCITEGIC>MOL_PROPERTY
W(SA)
SciTegic.value.DoubleValue
2.286

@<SCITEGIC>MOL_PROPERTY
Valence
SciTegic.value.DoubleValue
3.376

@<SCITEGIC>MOL_PROPERTY
Coulomb
SciTegic.value.DoubleValue
45.559

@<SCITEGIC>MOL_PROPERTY
VdW
SciTegic.value.DoubleValue
0.518

@<SCITEGIC>MOL_PROPERTY
VdW6
SciTegic.value.DoubleValue
-8.348

@<SCITEGIC>MOL_PROPERTY
VdW12
SciTegic.value.DoubleValue
8.866

@<SCITEGIC>MOL_PROPERTY
Bond
SciTegic.value.DoubleValue
0.240

@<SCITEGIC>MOL_PROPERTY
Angle
SciTegic.value.DoubleValue
1.236

@<SCITEGIC>MOL_PROPERTY
Pdih
SciTegic.value.DoubleValue
1.900

@<SCITEGIC>MOL_PROPERTY
Idih
SciTegic.value.DoubleValue
0.000

@<SCITEGIC>MOL_PROPERTY
Tether
SciTegic.value.DoubleValue
0.000

@<TRIPOS>MOLECULE
guest-s14_vm2.mol2 : vm2 ligand conformer 70
          26          25           1
SMALL
USER_CHARGES
 
@<TRIPOS>ATOM
       1    C1      19.252076   20.270434   20.629847 C.3        1 MOL1        -0.2400
       2    H1      20.058477   20.946168   20.316733 H          1 MOL1         0.0971
       3    H2      18.377992   20.474695   19.998108 H          1 MOL1         0.0971
       4    H3      18.977641   20.517217   21.663029 H          1 MOL1         0.0971
       5    C2      19.682983   18.792294   20.496283 C.3        1 MOL1        -0.1385
       6    H4      19.831086   18.561864   19.432029 H          1 MOL1         0.0960
       7    H5      18.869117   18.137100   20.834538 H          1 MOL1         0.0960
       8    C3      20.990677   18.459813   21.259222 C.3        1 MOL1        -0.1409
       9    H6      21.241533   17.403902   21.088158 H          1 MOL1         0.0960
      10    H7      21.814693   19.039086   20.820384 H          1 MOL1         0.0960
      11    C4      20.952101   18.728223   22.785792 C.3        1 MOL1        -0.1409
      12    H8      20.817947   19.802303   22.966962 H          1 MOL1         0.0960
      13    H9      21.933768   18.470507   23.206528 H          1 MOL1         0.0960
      14    C5      19.857735   17.918936   23.526291 C.3        1 MOL1        -0.1409
      15    H10     18.861811   18.233130   23.186750 H          1 MOL1         0.0960
      16    H11     19.956120   16.856001   23.266287 H          1 MOL1         0.0960
      17    C6      19.935585   18.064623   25.064046 C.3        1 MOL1        -0.1450
      18    H12     20.917186   17.722819   25.418425 H          1 MOL1         0.0960
      19    H13     19.188025   17.404120   25.523172 H          1 MOL1         0.0960
      20    C7      19.688688   19.509812   25.535912 C.3        1 MOL1         0.0172
      21    H14     20.452750   20.170903   25.118910 H          1 MOL1         0.0934
      22    H15     18.710415   19.849242   25.184983 H          1 MOL1         0.0934
      23    N1      19.721154   19.654864   27.043607 N.4        1 MOL1        -0.5956
      24    H16     19.554670   20.623659   27.336993 H          1 MOL1         0.3624
      25    H17     20.626870   19.375937   27.434836 H          1 MOL1         0.3624
      26    H18     19.005644   19.078318   27.498384 H          1 MOL1         0.3624
@<TRIPOS>BOND
    1     1     2    1
    2     1     3    1
    3     1     4    1
    4     1     5    1
    5     5     6    1
    6     5     7    1
    7     5     8    1
    8     8     9    1
    9     8    10    1
   10     8    11    1
   11    11    12    1
   12    11    13    1
   13    11    14    1
   14    14    15    1
   15    14    16    1
   16    14    17    1
   17    17    18    1
   18    17    19    1
   19    17    20    1
   20    20    21    1
   21    20    22    1
   22    20    23    1
   23    23    24    1
   24    23    25    1
   25    23    26    1
@<TRIPOS>SUBSTRUCTURE
       1 MOL1            1 RESIDUE      1      MOL     
@<SCITEGIC>MOL_PROPERTY
VM2 Rank
SciTegic.value.IntegerValue
70

@<SCITEGIC>MOL_PROPERTY
Conf_Id
SciTegic.value.IntegerValue
1326

@<SCITEGIC>MOL_PROPERTY
Probability
SciTegic.value.DoubleValue
0.42

@<SCITEGIC>MOL_PROPERTY
Sum Probability
SciTegic.value.DoubleValue
92.46

@<SCITEGIC>MOL_PROPERTY
Delta G
SciTegic.value.DoubleValue
1.716

@<SCITEGIC>MOL_PROPERTY
G
SciTegic.value.DoubleValue
49.977

@<SCITEGIC>MOL_PROPERTY
E
SciTegic.value.DoubleValue
17.088

@<SCITEGIC>MOL_PROPERTY
-TS
SciTegic.value.DoubleValue
32.889

@<SCITEGIC>MOL_PROPERTY
U+W
SciTegic.value.DoubleValue
-4.374

@<SCITEGIC>MOL_PROPERTY
U
SciTegic.value.DoubleValue
49.255

@<SCITEGIC>MOL_PROPERTY
W
SciTegic.value.DoubleValue
-53.629

@<SCITEGIC>MOL_PROPERTY
W(PB)
SciTegic.value.DoubleValue
-55.893

@<SCITEGIC>MOL_PROPERTY
W(SA)
SciTegic.value.DoubleValue
2.264

@<SCITEGIC>MOL_PROPERTY
Valence
SciTegic.value.DoubleValue
3.394

@<SCITEGIC>MOL_PROPERTY
Coulomb
SciTegic.value.DoubleValue
45.181

@<SCITEGIC>MOL_PROPERTY
VdW
SciTegic.value.DoubleValue
0.680

@<SCITEGIC>MOL_PROPERTY
VdW6
SciTegic.value.DoubleValue
-8.024

@<SCITEGIC>MOL_PROPERTY
VdW12
SciTegic.value.DoubleValue
8.704

@<SCITEGIC>MOL_PROPERTY
Bond
SciTegic.value.DoubleValue
0.231

@<SCITEGIC>MOL_PROPERTY
Angle
SciTegic.value.DoubleValue
1.123

@<SCITEGIC>MOL_PROPERTY
Pdih
SciTegic.value.DoubleValue
2.041

@<SCITEGIC>MOL_PROPERTY
Idih
SciTegic.value.DoubleValue
0.000

@<SCITEGIC>MOL_PROPERTY
Tether
SciTegic.value.DoubleValue
0.000

@<TRIPOS>MOLECULE
guest-s14_vm2.mol2 : vm2 ligand conformer 71
          26          25           1
SMALL
USER_CHARGES
 
@<TRIPOS>ATOM
       1    C1      20.661067   18.470719   19.495771 C.3        1 MOL1        -0.2400
       2    H1      21.528543   17.879053   19.175694 H          1 MOL1         0.0971
       3    H2      19.768565   18.044601   19.019237 H          1 MOL1         0.0971
       4    H3      20.793740   19.493783   19.120299 H          1 MOL1         0.0971
       5    C2      20.529649   18.457301   21.033541 C.3        1 MOL1        -0.1385
       6    H4      21.455195   18.851970   21.473157 H          1 MOL1         0.0960
       7    H5      20.428012   17.419706   21.380951 H          1 MOL1         0.0960
       8    C3      19.314940   19.289010   21.508909 C.3        1 MOL1        -0.1409
       9    H6      19.441402   20.337132   21.204467 H          1 MOL1         0.0960
      10    H7      18.412366   18.926746   20.997578 H          1 MOL1         0.0960
      11    C4      19.075250   19.217045   23.036871 C.3        1 MOL1        -0.1409
      12    H8      18.929073   18.168938   23.330286 H          1 MOL1         0.0960
      13    H9      18.134408   19.736289   23.265893 H          1 MOL1         0.0960
      14    C5      20.216731   19.851925   23.870753 C.3        1 MOL1        -0.1409
      15    H10     21.148042   19.289164   23.729645 H          1 MOL1         0.0960
      16    H11     20.412508   20.867268   23.499408 H          1 MOL1         0.0960
      17    C6      19.888248   19.934713   25.382517 C.3        1 MOL1        -0.1450
      18    H12     19.011428   20.579647   25.527784 H          1 MOL1         0.0960
      19    H13     20.718502   20.424381   25.908544 H          1 MOL1         0.0960
      20    C7      19.610334   18.567225   26.039137 C.3        1 MOL1         0.0172
      21    H14     19.359857   18.714922   27.093149 H          1 MOL1         0.0934
      22    H15     18.756727   18.089534   25.551411 H          1 MOL1         0.0934
      23    N1      20.784781   17.611062   25.973502 N.4        1 MOL1        -0.5956
      24    H16     20.571874   16.714508   26.424128 H          1 MOL1         0.3624
      25    H17     21.612569   17.993036   26.442319 H          1 MOL1         0.3624
      26    H18     21.051036   17.406664   25.005417 H          1 MOL1         0.3624
@<TRIPOS>BOND
    1     1     2    1
    2     1     3    1
    3     1     4    1
    4     1     5    1
    5     5     6    1
    6     5     7    1
    7     5     8    1
    8     8     9    1
    9     8    10    1
   10     8    11    1
   11    11    12    1
   12    11    13    1
   13    11    14    1
   14    14    15    1
   15    14    16    1
   16    14    17    1
   17    17    18    1
   18    17    19    1
   19    17    20    1
   20    20    21    1
   21    20    22    1
   22    20    23    1
   23    23    24    1
   24    23    25    1
   25    23    26    1
@<TRIPOS>SUBSTRUCTURE
       1 MOL1            1 RESIDUE      1      MOL     
@<SCITEGIC>MOL_PROPERTY
VM2 Rank
SciTegic.value.IntegerValue
71

@<SCITEGIC>MOL_PROPERTY
Conf_Id
SciTegic.value.IntegerValue
551

@<SCITEGIC>MOL_PROPERTY
Probability
SciTegic.value.DoubleValue
0.42

@<SCITEGIC>MOL_PROPERTY
Sum Probability
SciTegic.value.DoubleValue
92.88

@<SCITEGIC>MOL_PROPERTY
Delta G
SciTegic.value.DoubleValue
1.717

@<SCITEGIC>MOL_PROPERTY
G
SciTegic.value.DoubleValue
49.979

@<SCITEGIC>MOL_PROPERTY
E
SciTegic.value.DoubleValue
17.227

@<SCITEGIC>MOL_PROPERTY
-TS
SciTegic.value.DoubleValue
32.751

@<SCITEGIC>MOL_PROPERTY
U+W
SciTegic.value.DoubleValue
-4.234

@<SCITEGIC>MOL_PROPERTY
U
SciTegic.value.DoubleValue
49.691

@<SCITEGIC>MOL_PROPERTY
W
SciTegic.value.DoubleValue
-53.926

@<SCITEGIC>MOL_PROPERTY
W(PB)
SciTegic.value.DoubleValue
-56.219

@<SCITEGIC>MOL_PROPERTY
W(SA)
SciTegic.value.DoubleValue
2.294

@<SCITEGIC>MOL_PROPERTY
Valence
SciTegic.value.DoubleValue
3.067

@<SCITEGIC>MOL_PROPERTY
Coulomb
SciTegic.value.DoubleValue
45.912

@<SCITEGIC>MOL_PROPERTY
VdW
SciTegic.value.DoubleValue
0.712

@<SCITEGIC>MOL_PROPERTY
VdW6
SciTegic.value.DoubleValue
-7.810

@<SCITEGIC>MOL_PROPERTY
VdW12
SciTegic.value.DoubleValue
8.522

@<SCITEGIC>MOL_PROPERTY
Bond
SciTegic.value.DoubleValue
0.215

@<SCITEGIC>MOL_PROPERTY
Angle
SciTegic.value.DoubleValue
0.855

@<SCITEGIC>MOL_PROPERTY
Pdih
SciTegic.value.DoubleValue
1.997

@<SCITEGIC>MOL_PROPERTY
Idih
SciTegic.value.DoubleValue
0.000

@<SCITEGIC>MOL_PROPERTY
Tether
SciTegic.value.DoubleValue
0.000

@<TRIPOS>MOLECULE
guest-s14_vm2.mol2 : vm2 ligand conformer 72
          26          25           1
SMALL
USER_CHARGES
 
@<TRIPOS>ATOM
       1    C1      21.021732   19.885473   20.028396 C.3        1 MOL1        -0.2400
       2    H1      21.577265   20.628558   20.615256 H          1 MOL1         0.0971
       3    H2      21.721038   19.425542   19.318154 H          1 MOL1         0.0971
       4    H3      20.252064   20.412602   19.449650 H          1 MOL1         0.0971
       5    C2      20.391829   18.814460   20.943883 C.3        1 MOL1        -0.1385
       6    H4      21.192940   18.283209   21.474750 H          1 MOL1         0.0960
       7    H5      19.869202   18.069522   20.327800 H          1 MOL1         0.0960
       8    C3      19.403926   19.439568   21.956686 C.3        1 MOL1        -0.1409
       9    H6      19.932258   20.160044   22.594905 H          1 MOL1         0.0960
      10    H7      18.650140   20.020120   21.407185 H          1 MOL1         0.0960
      11    C4      18.669611   18.392084   22.832822 C.3        1 MOL1        -0.1409
      12    H8      18.063942   17.746682   22.181835 H          1 MOL1         0.0960
      13    H9      17.951804   18.913315   23.480440 H          1 MOL1         0.0960
      14    C5      19.589513   17.494406   23.703853 C.3        1 MOL1        -0.1409
      15    H10     18.958181   16.820702   24.299582 H          1 MOL1         0.0960
      16    H11     20.187666   16.841029   23.054906 H          1 MOL1         0.0960
      17    C6      20.535809   18.265346   24.657225 C.3        1 MOL1        -0.1450
      18    H12     21.257567   18.853093   24.075747 H          1 MOL1         0.0960
      19    H13     21.123640   17.540489   25.235827 H          1 MOL1         0.0960
      20    C7      19.776859   19.188415   25.628426 C.3        1 MOL1         0.0172
      21    H14     19.216281   19.937418   25.063026 H          1 MOL1         0.0934
      22    H15     19.068364   18.599791   26.217390 H          1 MOL1         0.0934
      23    N1      20.691722   19.919248   26.589709 N.4        1 MOL1        -0.5956
      24    H16     20.166610   20.527983   27.226900 H          1 MOL1         0.3624
      25    H17     21.367094   20.513313   26.097806 H          1 MOL1         0.3624
      26    H18     21.229432   19.269957   27.173176 H          1 MOL1         0.3624
@<TRIPOS>BOND
    1     1     2    1
    2     1     3    1
    3     1     4    1
    4     1     5    1
    5     5     6    1
    6     5     7    1
    7     5     8    1
    8     8     9    1
    9     8    10    1
   10     8    11    1
   11    11    12    1
   12    11    13    1
   13    11    14    1
   14    14    15    1
   15    14    16    1
   16    14    17    1
   17    17    18    1
   18    17    19    1
   19    17    20    1
   20    20    21    1
   21    20    22    1
   22    20    23    1
   23    23    24    1
   24    23    25    1
   25    23    26    1
@<TRIPOS>SUBSTRUCTURE
       1 MOL1            1 RESIDUE      1      MOL     
@<SCITEGIC>MOL_PROPERTY
VM2 Rank
SciTegic.value.IntegerValue
72

@<SCITEGIC>MOL_PROPERTY
Conf_Id
SciTegic.value.IntegerValue
716

@<SCITEGIC>MOL_PROPERTY
Probability
SciTegic.value.DoubleValue
0.40

@<SCITEGIC>MOL_PROPERTY
Sum Probability
SciTegic.value.DoubleValue
93.28

@<SCITEGIC>MOL_PROPERTY
Delta G
SciTegic.value.DoubleValue
1.738

@<SCITEGIC>MOL_PROPERTY
G
SciTegic.value.DoubleValue
49.999

@<SCITEGIC>MOL_PROPERTY
E
SciTegic.value.DoubleValue
16.962

@<SCITEGIC>MOL_PROPERTY
-TS
SciTegic.value.DoubleValue
33.038

@<SCITEGIC>MOL_PROPERTY
U+W
SciTegic.value.DoubleValue
-4.500

@<SCITEGIC>MOL_PROPERTY
U
SciTegic.value.DoubleValue
49.454

@<SCITEGIC>MOL_PROPERTY
W
SciTegic.value.DoubleValue
-53.954

@<SCITEGIC>MOL_PROPERTY
W(PB)
SciTegic.value.DoubleValue
-56.228

@<SCITEGIC>MOL_PROPERTY
W(SA)
SciTegic.value.DoubleValue
2.274

@<SCITEGIC>MOL_PROPERTY
Valence
SciTegic.value.DoubleValue
3.376

@<SCITEGIC>MOL_PROPERTY
Coulomb
SciTegic.value.DoubleValue
45.559

@<SCITEGIC>MOL_PROPERTY
VdW
SciTegic.value.DoubleValue
0.518

@<SCITEGIC>MOL_PROPERTY
VdW6
SciTegic.value.DoubleValue
-8.349

@<SCITEGIC>MOL_PROPERTY
VdW12
SciTegic.value.DoubleValue
8.867

@<SCITEGIC>MOL_PROPERTY
Bond
SciTegic.value.DoubleValue
0.240

@<SCITEGIC>MOL_PROPERTY
Angle
SciTegic.value.DoubleValue
1.236

@<SCITEGIC>MOL_PROPERTY
Pdih
SciTegic.value.DoubleValue
1.900

@<SCITEGIC>MOL_PROPERTY
Idih
SciTegic.value.DoubleValue
0.000

@<SCITEGIC>MOL_PROPERTY
Tether
SciTegic.value.DoubleValue
0.000

@<TRIPOS>MOLECULE
guest-s14_vm2.mol2 : vm2 ligand conformer 73
          26          25           1
SMALL
USER_CHARGES
 
@<TRIPOS>ATOM
       1    C1      19.194426   20.232445   20.628173 C.3        1 MOL1        -0.2400
       2    H1      19.027164   20.549879   21.664967 H          1 MOL1         0.0971
       3    H2      19.378358   21.135429   20.031827 H          1 MOL1         0.0971
       4    H3      18.272182   19.766721   20.257352 H          1 MOL1         0.0971
       5    C2      20.390207   19.259395   20.520012 C.3        1 MOL1        -0.1385
       6    H4      21.295310   19.739238   20.915757 H          1 MOL1         0.0960
       7    H5      20.593432   19.065512   19.457574 H          1 MOL1         0.0960
       8    C3      20.148120   17.903451   21.230993 C.3        1 MOL1        -0.1409
       9    H6      19.313522   17.387510   20.736638 H          1 MOL1         0.0960
      10    H7      21.028173   17.263041   21.080921 H          1 MOL1         0.0960
      11    C4      19.845520   17.997396   22.748737 C.3        1 MOL1        -0.1409
      12    H8      19.678299   16.981010   23.130972 H          1 MOL1         0.0960
      13    H9      18.902613   18.537422   22.902902 H          1 MOL1         0.0960
      14    C5      20.983348   18.662015   23.563931 C.3        1 MOL1        -0.1409
      15    H10     21.933666   18.161584   23.332464 H          1 MOL1         0.0960
      16    H11     21.100560   19.711176   23.261617 H          1 MOL1         0.0960
      17    C6      20.747330   18.600536   25.091176 C.3        1 MOL1        -0.1450
      18    H12     21.625749   19.013521   25.604721 H          1 MOL1         0.0960
      19    H13     20.660292   17.553232   25.409817 H          1 MOL1         0.0960
      20    C7      19.494142   19.381398   25.529303 C.3        1 MOL1         0.0172
      21    H14     19.581884   20.424592   25.213977 H          1 MOL1         0.0934
      22    H15     18.606752   18.952163   25.057056 H          1 MOL1         0.0934
      23    N1      19.277907   19.362363   27.028674 N.4        1 MOL1        -0.5956
      24    H16     18.439244   19.887379   27.299521 H          1 MOL1         0.3624
      25    H17     20.066810   19.779132   27.533768 H          1 MOL1         0.3624
      26    H18     19.161174   18.408399   27.385755 H          1 MOL1         0.3624
@<TRIPOS>BOND
    1     1     2    1
    2     1     3    1
    3     1     4    1
    4     1     5    1
    5     5     6    1
    6     5     7    1
    7     5     8    1
    8     8     9    1
    9     8    10    1
   10     8    11    1
   11    11    12    1
   12    11    13    1
   13    11    14    1
   14    14    15    1
   15    14    16    1
   16    14    17    1
   17    17    18    1
   18    17    19    1
   19    17    20    1
   20    20    21    1
   21    20    22    1
   22    20    23    1
   23    23    24    1
   24    23    25    1
   25    23    26    1
@<TRIPOS>SUBSTRUCTURE
       1 MOL1            1 RESIDUE      1      MOL     
@<SCITEGIC>MOL_PROPERTY
VM2 Rank
SciTegic.value.IntegerValue
73

@<SCITEGIC>MOL_PROPERTY
Conf_Id
SciTegic.value.IntegerValue
826

@<SCITEGIC>MOL_PROPERTY
Probability
SciTegic.value.DoubleValue
0.39

@<SCITEGIC>MOL_PROPERTY
Sum Probability
SciTegic.value.DoubleValue
93.67

@<SCITEGIC>MOL_PROPERTY
Delta G
SciTegic.value.DoubleValue
1.753

@<SCITEGIC>MOL_PROPERTY
G
SciTegic.value.DoubleValue
50.015

@<SCITEGIC>MOL_PROPERTY
E
SciTegic.value.DoubleValue
17.126

@<SCITEGIC>MOL_PROPERTY
-TS
SciTegic.value.DoubleValue
32.889

@<SCITEGIC>MOL_PROPERTY
U+W
SciTegic.value.DoubleValue
-4.336

@<SCITEGIC>MOL_PROPERTY
U
SciTegic.value.DoubleValue
49.255

@<SCITEGIC>MOL_PROPERTY
W
SciTegic.value.DoubleValue
-53.591

@<SCITEGIC>MOL_PROPERTY
W(PB)
SciTegic.value.DoubleValue
-55.889

@<SCITEGIC>MOL_PROPERTY
W(SA)
SciTegic.value.DoubleValue
2.298

@<SCITEGIC>MOL_PROPERTY
Valence
SciTegic.value.DoubleValue
3.394

@<SCITEGIC>MOL_PROPERTY
Coulomb
SciTegic.value.DoubleValue
45.181

@<SCITEGIC>MOL_PROPERTY
VdW
SciTegic.value.DoubleValue
0.680

@<SCITEGIC>MOL_PROPERTY
VdW6
SciTegic.value.DoubleValue
-8.024

@<SCITEGIC>MOL_PROPERTY
VdW12
SciTegic.value.DoubleValue
8.705

@<SCITEGIC>MOL_PROPERTY
Bond
SciTegic.value.DoubleValue
0.231

@<SCITEGIC>MOL_PROPERTY
Angle
SciTegic.value.DoubleValue
1.122

@<SCITEGIC>MOL_PROPERTY
Pdih
SciTegic.value.DoubleValue
2.041

@<SCITEGIC>MOL_PROPERTY
Idih
SciTegic.value.DoubleValue
0.000

@<SCITEGIC>MOL_PROPERTY
Tether
SciTegic.value.DoubleValue
0.000

@<TRIPOS>MOLECULE
guest-s14_vm2.mol2 : vm2 ligand conformer 74
          26          25           1
SMALL
USER_CHARGES
 
@<TRIPOS>ATOM
       1    C1      20.928172   18.341263   20.034466 C.3        1 MOL1        -0.2400
       2    H1      21.633745   19.129245   19.740871 H          1 MOL1         0.0971
       3    H2      21.355897   17.795170   20.884489 H          1 MOL1         0.0971
       4    H3      20.844168   17.636212   19.197393 H          1 MOL1         0.0971
       5    C2      19.544851   18.935965   20.382321 C.3        1 MOL1        -0.1385
       6    H4      18.863147   18.132799   20.692285 H          1 MOL1         0.0960
       7    H5      19.105892   19.366014   19.471249 H          1 MOL1         0.0960
       8    C3      19.603336   20.039932   21.468984 C.3        1 MOL1        -0.1409
       9    H6      20.184619   20.887534   21.080607 H          1 MOL1         0.0960
      10    H7      18.588075   20.424626   21.637501 H          1 MOL1         0.0960
      11    C4      20.209486   19.604997   22.828563 C.3        1 MOL1        -0.1409
      12    H8      20.220182   20.482090   23.488766 H          1 MOL1         0.0960
      13    H9      21.260179   19.315910   22.694135 H          1 MOL1         0.0960
      14    C5      19.431859   18.452118   23.512692 C.3        1 MOL1        -0.1409
      15    H10     18.376923   18.735272   23.632007 H          1 MOL1         0.0960
      16    H11     19.445936   17.564956   22.866324 H          1 MOL1         0.0960
      17    C6      20.019216   18.056615   24.888011 C.3        1 MOL1        -0.1450
      18    H12     21.071213   17.764532   24.769825 H          1 MOL1         0.0960
      19    H13     19.487113   17.171052   25.260271 H          1 MOL1         0.0960
      20    C7      19.907809   19.183889   25.931748 C.3        1 MOL1         0.0172
      21    H14     20.473122   20.057099   25.596458 H          1 MOL1         0.0934
      22    H15     18.860430   19.475145   26.048136 H          1 MOL1         0.0934
      23    N1      20.436272   18.784220   27.294215 N.4        1 MOL1        -0.5956
      24    H16     19.927115   17.983004   27.681520 H          1 MOL1         0.3624
      25    H17     20.352938   19.547762   27.974242 H          1 MOL1         0.3624
      26    H18     21.427146   18.523342   27.258248 H          1 MOL1         0.3624
@<TRIPOS>BOND
    1     1     2    1
    2     1     3    1
    3     1     4    1
    4     1     5    1
    5     5     6    1
    6     5     7    1
    7     5     8    1
    8     8     9    1
    9     8    10    1
   10     8    11    1
   11    11    12    1
   12    11    13    1
   13    11    14    1
   14    14    15    1
   15    14    16    1
   16    14    17    1
   17    17    18    1
   18    17    19    1
   19    17    20    1
   20    20    21    1
   21    20    22    1
   22    20    23    1
   23    23    24    1
   24    23    25    1
   25    23    26    1
@<TRIPOS>SUBSTRUCTURE
       1 MOL1            1 RESIDUE      1      MOL     
@<SCITEGIC>MOL_PROPERTY
VM2 Rank
SciTegic.value.IntegerValue
74

@<SCITEGIC>MOL_PROPERTY
Conf_Id
SciTegic.value.IntegerValue
117

@<SCITEGIC>MOL_PROPERTY
Probability
SciTegic.value.DoubleValue
0.38

@<SCITEGIC>MOL_PROPERTY
Sum Probability
SciTegic.value.DoubleValue
94.05

@<SCITEGIC>MOL_PROPERTY
Delta G
SciTegic.value.DoubleValue
1.779

@<SCITEGIC>MOL_PROPERTY
G
SciTegic.value.DoubleValue
50.040

@<SCITEGIC>MOL_PROPERTY
E
SciTegic.value.DoubleValue
17.174

@<SCITEGIC>MOL_PROPERTY
-TS
SciTegic.value.DoubleValue
32.867

@<SCITEGIC>MOL_PROPERTY
U+W
SciTegic.value.DoubleValue
-4.288

@<SCITEGIC>MOL_PROPERTY
U
SciTegic.value.DoubleValue
49.209

@<SCITEGIC>MOL_PROPERTY
W
SciTegic.value.DoubleValue
-53.498

@<SCITEGIC>MOL_PROPERTY
W(PB)
SciTegic.value.DoubleValue
-55.784

@<SCITEGIC>MOL_PROPERTY
W(SA)
SciTegic.value.DoubleValue
2.286

@<SCITEGIC>MOL_PROPERTY
Valence
SciTegic.value.DoubleValue
3.465

@<SCITEGIC>MOL_PROPERTY
Coulomb
SciTegic.value.DoubleValue
44.958

@<SCITEGIC>MOL_PROPERTY
VdW
SciTegic.value.DoubleValue
0.786

@<SCITEGIC>MOL_PROPERTY
VdW6
SciTegic.value.DoubleValue
-7.903

@<SCITEGIC>MOL_PROPERTY
VdW12
SciTegic.value.DoubleValue
8.690

@<SCITEGIC>MOL_PROPERTY
Bond
SciTegic.value.DoubleValue
0.237

@<SCITEGIC>MOL_PROPERTY
Angle
SciTegic.value.DoubleValue
1.213

@<SCITEGIC>MOL_PROPERTY
Pdih
SciTegic.value.DoubleValue
2.015

@<SCITEGIC>MOL_PROPERTY
Idih
SciTegic.value.DoubleValue
0.000

@<SCITEGIC>MOL_PROPERTY
Tether
SciTegic.value.DoubleValue
0.000

@<TRIPOS>MOLECULE
guest-s14_vm2.mol2 : vm2 ligand conformer 75
          26          25           1
SMALL
USER_CHARGES
 
@<TRIPOS>ATOM
       1    C1      20.336985   17.951660   20.014464 C.3        1 MOL1        -0.2400
       2    H1      20.630868   17.317180   20.859907 H          1 MOL1         0.0971
       3    H2      19.349730   17.623603   19.664243 H          1 MOL1         0.0971
       4    H3      21.056462   17.776498   19.204206 H          1 MOL1         0.0971
       5    C2      20.318193   19.445943   20.408181 C.3        1 MOL1        -0.1385
       6    H4      20.138143   20.046846   19.505865 H          1 MOL1         0.0960
       7    H5      21.309245   19.745588   20.774108 H          1 MOL1         0.0960
       8    C3      19.230748   19.794202   21.456596 C.3        1 MOL1        -0.1409
       9    H6      19.268454   20.873176   21.660396 H          1 MOL1         0.0960
      10    H7      18.242001   19.606610   21.015752 H          1 MOL1         0.0960
      11    C4      19.328814   19.024116   22.799126 C.3        1 MOL1        -0.1409
      12    H8      19.187848   17.949252   22.624790 H          1 MOL1         0.0960
      13    H9      18.488324   19.339878   23.430904 H          1 MOL1         0.0960
      14    C5      20.661287   19.262590   23.553788 C.3        1 MOL1        -0.1409
      15    H10     21.500628   18.919539   22.935025 H          1 MOL1         0.0960
      16    H11     20.810148   20.339485   23.713284 H          1 MOL1         0.0960
      17    C6      20.729708   18.525013   24.911805 C.3        1 MOL1        -0.1450
      18    H12     21.734750   18.652953   25.335424 H          1 MOL1         0.0960
      19    H13     20.590090   17.447264   24.753862 H          1 MOL1         0.0960
      20    C7      19.689620   19.040060   25.924472 C.3        1 MOL1         0.0172
      21    H14     19.828219   20.113311   26.080368 H          1 MOL1         0.0934
      22    H15     18.681155   18.875555   25.536622 H          1 MOL1         0.0934
      23    N1      19.785645   18.355416   27.272568 N.4        1 MOL1        -0.5956
      24    H16     20.703475   18.495233   27.707577 H          1 MOL1         0.3624
      25    H17     19.637690   17.343572   27.198657 H          1 MOL1         0.3624
      26    H18     19.085440   18.712276   27.931918 H          1 MOL1         0.3624
@<TRIPOS>BOND
    1     1     2    1
    2     1     3    1
    3     1     4    1
    4     1     5    1
    5     5     6    1
    6     5     7    1
    7     5     8    1
    8     8     9    1
    9     8    10    1
   10     8    11    1
   11    11    12    1
   12    11    13    1
   13    11    14    1
   14    14    15    1
   15    14    16    1
   16    14    17    1
   17    17    18    1
   18    17    19    1
   19    17    20    1
   20    20    21    1
   21    20    22    1
   22    20    23    1
   23    23    24    1
   24    23    25    1
   25    23    26    1
@<TRIPOS>SUBSTRUCTURE
       1 MOL1            1 RESIDUE      1      MOL     
@<SCITEGIC>MOL_PROPERTY
VM2 Rank
SciTegic.value.IntegerValue
75

@<SCITEGIC>MOL_PROPERTY
Conf_Id
SciTegic.value.IntegerValue
191

@<SCITEGIC>MOL_PROPERTY
Probability
SciTegic.value.DoubleValue
0.36

@<SCITEGIC>MOL_PROPERTY
Sum Probability
SciTegic.value.DoubleValue
94.41

@<SCITEGIC>MOL_PROPERTY
Delta G
SciTegic.value.DoubleValue
1.805

@<SCITEGIC>MOL_PROPERTY
G
SciTegic.value.DoubleValue
50.066

@<SCITEGIC>MOL_PROPERTY
E
SciTegic.value.DoubleValue
17.200

@<SCITEGIC>MOL_PROPERTY
-TS
SciTegic.value.DoubleValue
32.866

@<SCITEGIC>MOL_PROPERTY
U+W
SciTegic.value.DoubleValue
-4.262

@<SCITEGIC>MOL_PROPERTY
U
SciTegic.value.DoubleValue
49.209

@<SCITEGIC>MOL_PROPERTY
W
SciTegic.value.DoubleValue
-53.471

@<SCITEGIC>MOL_PROPERTY
W(PB)
SciTegic.value.DoubleValue
-55.745

@<SCITEGIC>MOL_PROPERTY
W(SA)
SciTegic.value.DoubleValue
2.274

@<SCITEGIC>MOL_PROPERTY
Valence
SciTegic.value.DoubleValue
3.465

@<SCITEGIC>MOL_PROPERTY
Coulomb
SciTegic.value.DoubleValue
44.958

@<SCITEGIC>MOL_PROPERTY
VdW
SciTegic.value.DoubleValue
0.786

@<SCITEGIC>MOL_PROPERTY
VdW6
SciTegic.value.DoubleValue
-7.903

@<SCITEGIC>MOL_PROPERTY
VdW12
SciTegic.value.DoubleValue
8.689

@<SCITEGIC>MOL_PROPERTY
Bond
SciTegic.value.DoubleValue
0.237

@<SCITEGIC>MOL_PROPERTY
Angle
SciTegic.value.DoubleValue
1.212

@<SCITEGIC>MOL_PROPERTY
Pdih
SciTegic.value.DoubleValue
2.015

@<SCITEGIC>MOL_PROPERTY
Idih
SciTegic.value.DoubleValue
0.000

@<SCITEGIC>MOL_PROPERTY
Tether
SciTegic.value.DoubleValue
0.000

@<TRIPOS>MOLECULE
guest-s14_vm2.mol2 : vm2 ligand conformer 76
          26          25           1
SMALL
USER_CHARGES
 
@<TRIPOS>ATOM
       1    C1      20.376995   19.176799   19.597094 C.3        1 MOL1        -0.2400
       2    H1      19.336707   19.027768   19.279920 H          1 MOL1         0.0971
       3    H2      20.508985   20.233586   19.859670 H          1 MOL1         0.0971
       4    H3      21.023560   18.969000   18.734712 H          1 MOL1         0.0971
       5    C2      20.736709   18.247067   20.778336 C.3        1 MOL1        -0.1385
       6    H4      21.769858   18.439493   21.099746 H          1 MOL1         0.0960
       7    H5      20.713411   17.206059   20.426825 H          1 MOL1         0.0960
       8    C3      19.778299   18.382949   21.986309 C.3        1 MOL1        -0.1409
       9    H6      18.747442   18.186920   21.660885 H          1 MOL1         0.0960
      10    H7      20.031124   17.595940   22.708359 H          1 MOL1         0.0960
      11    C4      19.853897   19.766222   22.681208 C.3        1 MOL1        -0.1409
      12    H8      19.608412   20.552698   21.956113 H          1 MOL1         0.0960
      13    H9      20.884965   19.962874   23.003863 H          1 MOL1         0.0960
      14    C5      18.884711   19.910518   23.883476 C.3        1 MOL1        -0.1409
      15    H10     18.965587   20.932783   24.278296 H          1 MOL1         0.0960
      16    H11     17.850724   19.806145   23.526808 H          1 MOL1         0.0960
      17    C6      19.120893   18.908878   25.041462 C.3        1 MOL1        -0.1450
      18    H12     18.901886   17.887047   24.706741 H          1 MOL1         0.0960
      19    H13     18.407572   19.126411   25.847491 H          1 MOL1         0.0960
      20    C7      20.552452   18.975684   25.605154 C.3        1 MOL1         0.0172
      21    H14     21.269789   18.719424   24.821105 H          1 MOL1         0.0934
      22    H15     20.765451   19.991465   25.948897 H          1 MOL1         0.0934
      23    N1      20.777044   18.030884   26.767961 N.4        1 MOL1        -0.5956
      24    H16     21.735771   18.090965   27.127905 H          1 MOL1         0.3624
      25    H17     20.618434   17.053431   26.502478 H          1 MOL1         0.3624
      26    H18     20.150405   18.235958   27.553095 H          1 MOL1         0.3624
@<TRIPOS>BOND
    1     1     2    1
    2     1     3    1
    3     1     4    1
    4     1     5    1
    5     5     6    1
    6     5     7    1
    7     5     8    1
    8     8     9    1
    9     8    10    1
   10     8    11    1
   11    11    12    1
   12    11    13    1
   13    11    14    1
   14    14    15    1
   15    14    16    1
   16    14    17    1
   17    17    18    1
   18    17    19    1
   19    17    20    1
   20    20    21    1
   21    20    22    1
   22    20    23    1
   23    23    24    1
   24    23    25    1
   25    23    26    1
@<TRIPOS>SUBSTRUCTURE
       1 MOL1            1 RESIDUE      1      MOL     
@<SCITEGIC>MOL_PROPERTY
VM2 Rank
SciTegic.value.IntegerValue
76

@<SCITEGIC>MOL_PROPERTY
Conf_Id
SciTegic.value.IntegerValue
764

@<SCITEGIC>MOL_PROPERTY
Probability
SciTegic.value.DoubleValue
0.34

@<SCITEGIC>MOL_PROPERTY
Sum Probability
SciTegic.value.DoubleValue
94.75

@<SCITEGIC>MOL_PROPERTY
Delta G
SciTegic.value.DoubleValue
1.843

@<SCITEGIC>MOL_PROPERTY
G
SciTegic.value.DoubleValue
50.105

@<SCITEGIC>MOL_PROPERTY
E
SciTegic.value.DoubleValue
17.344

@<SCITEGIC>MOL_PROPERTY
-TS
SciTegic.value.DoubleValue
32.761

@<SCITEGIC>MOL_PROPERTY
U+W
SciTegic.value.DoubleValue
-4.118

@<SCITEGIC>MOL_PROPERTY
U
SciTegic.value.DoubleValue
49.638

@<SCITEGIC>MOL_PROPERTY
W
SciTegic.value.DoubleValue
-53.757

@<SCITEGIC>MOL_PROPERTY
W(PB)
SciTegic.value.DoubleValue
-56.037

@<SCITEGIC>MOL_PROPERTY
W(SA)
SciTegic.value.DoubleValue
2.280

@<SCITEGIC>MOL_PROPERTY
Valence
SciTegic.value.DoubleValue
3.490

@<SCITEGIC>MOL_PROPERTY
Coulomb
SciTegic.value.DoubleValue
45.361

@<SCITEGIC>MOL_PROPERTY
VdW
SciTegic.value.DoubleValue
0.787

@<SCITEGIC>MOL_PROPERTY
VdW6
SciTegic.value.DoubleValue
-7.914

@<SCITEGIC>MOL_PROPERTY
VdW12
SciTegic.value.DoubleValue
8.701

@<SCITEGIC>MOL_PROPERTY
Bond
SciTegic.value.DoubleValue
0.240

@<SCITEGIC>MOL_PROPERTY
Angle
SciTegic.value.DoubleValue
1.203

@<SCITEGIC>MOL_PROPERTY
Pdih
SciTegic.value.DoubleValue
2.047

@<SCITEGIC>MOL_PROPERTY
Idih
SciTegic.value.DoubleValue
0.000

@<SCITEGIC>MOL_PROPERTY
Tether
SciTegic.value.DoubleValue
0.000

@<TRIPOS>MOLECULE
guest-s14_vm2.mol2 : vm2 ligand conformer 77
          26          25           1
SMALL
USER_CHARGES
 
@<TRIPOS>ATOM
       1    C1      19.806704   18.801244   19.577924 C.3        1 MOL1        -0.2400
       2    H1      20.367966   19.707129   19.314546 H          1 MOL1         0.0971
       3    H2      19.783217   18.152153   18.693018 H          1 MOL1         0.0971
       4    H3      18.772294   19.089743   19.801377 H          1 MOL1         0.0971
       5    C2      20.463343   18.067022   20.769090 C.3        1 MOL1        -0.1385
       6    H4      21.444594   17.687662   20.451233 H          1 MOL1         0.0960
       7    H5      19.864821   17.184757   21.035758 H          1 MOL1         0.0960
       8    C3      20.659589   18.963355   22.015801 C.3        1 MOL1        -0.1409
       9    H6      21.248870   18.397908   22.749068 H          1 MOL1         0.0960
      10    H7      21.260604   19.842265   21.745078 H          1 MOL1         0.0960
      11    C4      19.327501   19.419319   22.663635 C.3        1 MOL1        -0.1409
      12    H8      18.726085   18.540535   22.931812 H          1 MOL1         0.0960
      13    H9      18.735828   19.977683   21.926938 H          1 MOL1         0.0960
      14    C5      19.520531   20.329364   23.904662 C.3        1 MOL1        -0.1409
      15    H10     20.039852   21.248383   23.599791 H          1 MOL1         0.0960
      16    H11     18.531776   20.646914   24.263790 H          1 MOL1         0.0960
      17    C6      20.293398   19.681356   25.080567 C.3        1 MOL1        -0.1450
      18    H12     20.336975   20.397588   25.911799 H          1 MOL1         0.0960
      19    H13     21.333304   19.488914   24.787826 H          1 MOL1         0.0960
      20    C7      19.642451   18.376184   25.574898 C.3        1 MOL1         0.0172
      21    H14     18.610043   18.571475   25.877113 H          1 MOL1         0.0934
      22    H15     19.631832   17.640282   24.766622 H          1 MOL1         0.0934
      23    N1      20.367484   17.761155   26.754423 N.4        1 MOL1        -0.5956
      24    H16     19.918271   16.893675   27.067493 H          1 MOL1         0.3624
      25    H17     20.389368   18.393537   27.561132 H          1 MOL1         0.3624
      26    H18     21.339657   17.528672   26.526644 H          1 MOL1         0.3624
@<TRIPOS>BOND
    1     1     2    1
    2     1     3    1
    3     1     4    1
    4     1     5    1
    5     5     6    1
    6     5     7    1
    7     5     8    1
    8     8     9    1
    9     8    10    1
   10     8    11    1
   11    11    12    1
   12    11    13    1
   13    11    14    1
   14    14    15    1
   15    14    16    1
   16    14    17    1
   17    17    18    1
   18    17    19    1
   19    17    20    1
   20    20    21    1
   21    20    22    1
   22    20    23    1
   23    23    24    1
   24    23    25    1
   25    23    26    1
@<TRIPOS>SUBSTRUCTURE
       1 MOL1            1 RESIDUE      1      MOL     
@<SCITEGIC>MOL_PROPERTY
VM2 Rank
SciTegic.value.IntegerValue
77

@<SCITEGIC>MOL_PROPERTY
Conf_Id
SciTegic.value.IntegerValue
1359

@<SCITEGIC>MOL_PROPERTY
Probability
SciTegic.value.DoubleValue
0.34

@<SCITEGIC>MOL_PROPERTY
Sum Probability
SciTegic.value.DoubleValue
95.08

@<SCITEGIC>MOL_PROPERTY
Delta G
SciTegic.value.DoubleValue
1.843

@<SCITEGIC>MOL_PROPERTY
G
SciTegic.value.DoubleValue
50.105

@<SCITEGIC>MOL_PROPERTY
E
SciTegic.value.DoubleValue
17.344

@<SCITEGIC>MOL_PROPERTY
-TS
SciTegic.value.DoubleValue
32.761

@<SCITEGIC>MOL_PROPERTY
U+W
SciTegic.value.DoubleValue
-4.118

@<SCITEGIC>MOL_PROPERTY
U
SciTegic.value.DoubleValue
49.638

@<SCITEGIC>MOL_PROPERTY
W
SciTegic.value.DoubleValue
-53.756

@<SCITEGIC>MOL_PROPERTY
W(PB)
SciTegic.value.DoubleValue
-56.050

@<SCITEGIC>MOL_PROPERTY
W(SA)
SciTegic.value.DoubleValue
2.294

@<SCITEGIC>MOL_PROPERTY
Valence
SciTegic.value.DoubleValue
3.491

@<SCITEGIC>MOL_PROPERTY
Coulomb
SciTegic.value.DoubleValue
45.360

@<SCITEGIC>MOL_PROPERTY
VdW
SciTegic.value.DoubleValue
0.787

@<SCITEGIC>MOL_PROPERTY
VdW6
SciTegic.value.DoubleValue
-7.914

@<SCITEGIC>MOL_PROPERTY
VdW12
SciTegic.value.DoubleValue
8.701

@<SCITEGIC>MOL_PROPERTY
Bond
SciTegic.value.DoubleValue
0.240

@<SCITEGIC>MOL_PROPERTY
Angle
SciTegic.value.DoubleValue
1.203

@<SCITEGIC>MOL_PROPERTY
Pdih
SciTegic.value.DoubleValue
2.047

@<SCITEGIC>MOL_PROPERTY
Idih
SciTegic.value.DoubleValue
0.000

@<SCITEGIC>MOL_PROPERTY
Tether
SciTegic.value.DoubleValue
0.000

@<TRIPOS>MOLECULE
guest-s14_vm2.mol2 : vm2 ligand conformer 78
          26          25           1
SMALL
USER_CHARGES
 
@<TRIPOS>ATOM
       1    C1      19.072736   19.197892   20.075685 C.3        1 MOL1        -0.2400
       2    H1      19.781330   19.369180   19.255024 H          1 MOL1         0.0971
       3    H2      18.120261   18.875452   19.635640 H          1 MOL1         0.0971
       4    H3      18.895925   20.154727   20.582439 H          1 MOL1         0.0971
       5    C2      19.606320   18.128511   21.055417 C.3        1 MOL1        -0.1385
       6    H4      19.663574   17.164866   20.530345 H          1 MOL1         0.0960
       7    H5      18.887726   17.983348   21.873078 H          1 MOL1         0.0960
       8    C3      21.007402   18.463717   21.626822 C.3        1 MOL1        -0.1409
       9    H6      21.340051   17.634616   22.265254 H          1 MOL1         0.0960
      10    H7      21.727322   18.502747   20.797827 H          1 MOL1         0.0960
      11    C4      21.095835   19.794822   22.421118 C.3        1 MOL1        -0.1409
      12    H8      20.934521   20.637316   21.735478 H          1 MOL1         0.0960
      13    H9      22.122257   19.912543   22.794787 H          1 MOL1         0.0960
      14    C5      20.111040   19.921754   23.611943 C.3        1 MOL1        -0.1409
      15    H10     20.255534   20.906603   24.077413 H          1 MOL1         0.0960
      16    H11     19.075823   19.910224   23.245739 H          1 MOL1         0.0960
      17    C6      20.297996   18.826220   24.687390 C.3        1 MOL1        -0.1450
      18    H12     21.341881   18.817238   25.028012 H          1 MOL1         0.0960
      19    H13     20.088235   17.837867   24.259291 H          1 MOL1         0.0960
      20    C7      19.368582   19.058934   25.891420 C.3        1 MOL1         0.0172
      21    H14     19.581591   20.034027   26.337811 H          1 MOL1         0.0934
      22    H15     18.327016   19.052837   25.558929 H          1 MOL1         0.0934
      23    N1      19.521089   18.007150   26.971205 N.4        1 MOL1        -0.5956
      24    H16     18.893634   18.181428   27.763881 H          1 MOL1         0.3624
      25    H17     20.474958   17.980210   27.346191 H          1 MOL1         0.3624
      26    H18     19.307073   17.067159   26.622279 H          1 MOL1         0.3624
@<TRIPOS>BOND
    1     1     2    1
    2     1     3    1
    3     1     4    1
    4     1     5    1
    5     5     6    1
    6     5     7    1
    7     5     8    1
    8     8     9    1
    9     8    10    1
   10     8    11    1
   11    11    12    1
   12    11    13    1
   13    11    14    1
   14    14    15    1
   15    14    16    1
   16    14    17    1
   17    17    18    1
   18    17    19    1
   19    17    20    1
   20    20    21    1
   21    20    22    1
   22    20    23    1
   23    23    24    1
   24    23    25    1
   25    23    26    1
@<TRIPOS>SUBSTRUCTURE
       1 MOL1            1 RESIDUE      1      MOL     
@<SCITEGIC>MOL_PROPERTY
VM2 Rank
SciTegic.value.IntegerValue
78

@<SCITEGIC>MOL_PROPERTY
Conf_Id
SciTegic.value.IntegerValue
957

@<SCITEGIC>MOL_PROPERTY
Probability
SciTegic.value.DoubleValue
0.32

@<SCITEGIC>MOL_PROPERTY
Sum Probability
SciTegic.value.DoubleValue
95.40

@<SCITEGIC>MOL_PROPERTY
Delta G
SciTegic.value.DoubleValue
1.879

@<SCITEGIC>MOL_PROPERTY
G
SciTegic.value.DoubleValue
50.140

@<SCITEGIC>MOL_PROPERTY
E
SciTegic.value.DoubleValue
17.022

@<SCITEGIC>MOL_PROPERTY
-TS
SciTegic.value.DoubleValue
33.119

@<SCITEGIC>MOL_PROPERTY
U+W
SciTegic.value.DoubleValue
-4.440

@<SCITEGIC>MOL_PROPERTY
U
SciTegic.value.DoubleValue
49.278

@<SCITEGIC>MOL_PROPERTY
W
SciTegic.value.DoubleValue
-53.718

@<SCITEGIC>MOL_PROPERTY
W(PB)
SciTegic.value.DoubleValue
-55.975

@<SCITEGIC>MOL_PROPERTY
W(SA)
SciTegic.value.DoubleValue
2.257

@<SCITEGIC>MOL_PROPERTY
Valence
SciTegic.value.DoubleValue
3.566

@<SCITEGIC>MOL_PROPERTY
Coulomb
SciTegic.value.DoubleValue
45.108

@<SCITEGIC>MOL_PROPERTY
VdW
SciTegic.value.DoubleValue
0.604

@<SCITEGIC>MOL_PROPERTY
VdW6
SciTegic.value.DoubleValue
-8.326

@<SCITEGIC>MOL_PROPERTY
VdW12
SciTegic.value.DoubleValue
8.930

@<SCITEGIC>MOL_PROPERTY
Bond
SciTegic.value.DoubleValue
0.252

@<SCITEGIC>MOL_PROPERTY
Angle
SciTegic.value.DoubleValue
1.371

@<SCITEGIC>MOL_PROPERTY
Pdih
SciTegic.value.DoubleValue
1.943

@<SCITEGIC>MOL_PROPERTY
Idih
SciTegic.value.DoubleValue
0.000

@<SCITEGIC>MOL_PROPERTY
Tether
SciTegic.value.DoubleValue
0.000

@<TRIPOS>MOLECULE
guest-s14_vm2.mol2 : vm2 ligand conformer 79
          26          25           1
SMALL
USER_CHARGES
 
@<TRIPOS>ATOM
       1    C1      20.277279   19.992060   20.115710 C.3        1 MOL1        -0.2400
       2    H1      19.444474   20.516422   20.600554 H          1 MOL1         0.0971
       3    H2      20.968094   20.753051   19.730370 H          1 MOL1         0.0971
       4    H3      19.879644   19.433908   19.258224 H          1 MOL1         0.0971
       5    C2      21.004247   19.050267   21.101970 C.3        1 MOL1        -0.1385
       6    H4      21.381877   19.627982   21.956171 H          1 MOL1         0.0960
       7    H5      21.891188   18.633657   20.604615 H          1 MOL1         0.0960
       8    C3      20.119386   17.878218   21.597169 C.3        1 MOL1        -0.1409
       9    H6      19.839236   17.257780   20.734839 H          1 MOL1         0.0960
      10    H7      20.720491   17.226163   22.244593 H          1 MOL1         0.0960
      11    C4      18.825215   18.297713   22.345306 C.3        1 MOL1        -0.1409
      12    H8      18.296443   17.390022   22.667064 H          1 MOL1         0.0960
      13    H9      18.146724   18.799206   21.642402 H          1 MOL1         0.0960
      14    C5      19.040201   19.215707   23.576184 C.3        1 MOL1        -0.1409
      15    H10     19.474637   20.173103   23.259057 H          1 MOL1         0.0960
      16    H11     18.057291   19.457278   24.003970 H          1 MOL1         0.0960
      17    C6      19.922779   18.578829   24.674899 C.3        1 MOL1        -0.1450
      18    H12     20.932835   18.394728   24.287591 H          1 MOL1         0.0960
      19    H13     19.504993   17.606135   24.966652 H          1 MOL1         0.0960
      20    C7      20.018162   19.487220   25.913195 C.3        1 MOL1         0.0172
      21    H14     20.448638   20.451540   25.629955 H          1 MOL1         0.0934
      22    H15     19.018144   19.662656   26.318944 H          1 MOL1         0.0934
      23    N1      20.873731   18.898987   27.016568 N.4        1 MOL1        -0.5956
      24    H16     20.923343   19.519655   27.831870 H          1 MOL1         0.3624
      25    H17     21.837346   18.735278   26.707086 H          1 MOL1         0.3624
      26    H18     20.506044   18.000886   27.347364 H          1 MOL1         0.3624
@<TRIPOS>BOND
    1     1     2    1
    2     1     3    1
    3     1     4    1
    4     1     5    1
    5     5     6    1
    6     5     7    1
    7     5     8    1
    8     8     9    1
    9     8    10    1
   10     8    11    1
   11    11    12    1
   12    11    13    1
   13    11    14    1
   14    14    15    1
   15    14    16    1
   16    14    17    1
   17    17    18    1
   18    17    19    1
   19    17    20    1
   20    20    21    1
   21    20    22    1
   22    20    23    1
   23    23    24    1
   24    23    25    1
   25    23    26    1
@<TRIPOS>SUBSTRUCTURE
       1 MOL1            1 RESIDUE      1      MOL     
@<SCITEGIC>MOL_PROPERTY
VM2 Rank
SciTegic.value.IntegerValue
79

@<SCITEGIC>MOL_PROPERTY
Conf_Id
SciTegic.value.IntegerValue
1211

@<SCITEGIC>MOL_PROPERTY
Probability
SciTegic.value.DoubleValue
0.32

@<SCITEGIC>MOL_PROPERTY
Sum Probability
SciTegic.value.DoubleValue
95.72

@<SCITEGIC>MOL_PROPERTY
Delta G
SciTegic.value.DoubleValue
1.884

@<SCITEGIC>MOL_PROPERTY
G
SciTegic.value.DoubleValue
50.145

@<SCITEGIC>MOL_PROPERTY
E
SciTegic.value.DoubleValue
17.027

@<SCITEGIC>MOL_PROPERTY
-TS
SciTegic.value.DoubleValue
33.118

@<SCITEGIC>MOL_PROPERTY
U+W
SciTegic.value.DoubleValue
-4.435

@<SCITEGIC>MOL_PROPERTY
U
SciTegic.value.DoubleValue
49.278

@<SCITEGIC>MOL_PROPERTY
W
SciTegic.value.DoubleValue
-53.712

@<SCITEGIC>MOL_PROPERTY
W(PB)
SciTegic.value.DoubleValue
-55.986

@<SCITEGIC>MOL_PROPERTY
W(SA)
SciTegic.value.DoubleValue
2.274

@<SCITEGIC>MOL_PROPERTY
Valence
SciTegic.value.DoubleValue
3.566

@<SCITEGIC>MOL_PROPERTY
Coulomb
SciTegic.value.DoubleValue
45.108

@<SCITEGIC>MOL_PROPERTY
VdW
SciTegic.value.DoubleValue
0.604

@<SCITEGIC>MOL_PROPERTY
VdW6
SciTegic.value.DoubleValue
-8.325

@<SCITEGIC>MOL_PROPERTY
VdW12
SciTegic.value.DoubleValue
8.930

@<SCITEGIC>MOL_PROPERTY
Bond
SciTegic.value.DoubleValue
0.252

@<SCITEGIC>MOL_PROPERTY
Angle
SciTegic.value.DoubleValue
1.371

@<SCITEGIC>MOL_PROPERTY
Pdih
SciTegic.value.DoubleValue
1.943

@<SCITEGIC>MOL_PROPERTY
Idih
SciTegic.value.DoubleValue
0.000

@<SCITEGIC>MOL_PROPERTY
Tether
SciTegic.value.DoubleValue
0.000

@<TRIPOS>MOLECULE
guest-s14_vm2.mol2 : vm2 ligand conformer 80
          26          25           1
SMALL
USER_CHARGES
 
@<TRIPOS>ATOM
       1    C1      18.577957   19.017042   20.470824 C.3        1 MOL1        -0.2400
       2    H1      18.102626   19.877692   20.959021 H          1 MOL1         0.0971
       3    H2      18.202071   18.965532   19.440794 H          1 MOL1         0.0971
       4    H3      18.251961   18.105389   20.986659 H          1 MOL1         0.0971
       5    C2      20.117439   19.153990   20.478466 C.3        1 MOL1        -0.1385
       6    H4      20.400129   20.011269   19.851636 H          1 MOL1         0.0960
       7    H5      20.569882   18.268565   20.010457 H          1 MOL1         0.0960
       8    C3      20.707703   19.357734   21.894470 C.3        1 MOL1        -0.1409
       9    H6      21.784892   19.552209   21.800062 H          1 MOL1         0.0960
      10    H7      20.266697   20.259048   22.340156 H          1 MOL1         0.0960
      11    C4      20.493240   18.141124   22.829631 C.3        1 MOL1        -0.1409
      12    H8      20.844186   17.232835   22.320820 H          1 MOL1         0.0960
      13    H9      19.421848   17.992027   23.013607 H          1 MOL1         0.0960
      14    C5      21.241582   18.265347   24.181900 C.3        1 MOL1        -0.1409
      15    H10     21.080788   17.346675   24.761892 H          1 MOL1         0.0960
      16    H11     22.322645   18.310320   23.991033 H          1 MOL1         0.0960
      17    C6      20.834175   19.491209   25.040980 C.3        1 MOL1        -0.1450
      18    H12     21.151666   20.414679   24.540077 H          1 MOL1         0.0960
      19    H13     21.381687   19.463236   25.992367 H          1 MOL1         0.0960
      20    C7      19.322315   19.577592   25.331204 C.3        1 MOL1         0.0172
      21    H14     19.114088   20.481718   25.909697 H          1 MOL1         0.0934
      22    H15     18.769340   19.640958   24.390346 H          1 MOL1         0.0934
      23    N1      18.786588   18.394962   26.113526 N.4        1 MOL1        -0.5956
      24    H16     19.247376   18.301923   27.024486 H          1 MOL1         0.3624
      25    H17     18.929582   17.514034   25.610201 H          1 MOL1         0.3624
      26    H18     17.780458   18.480794   26.293519 H          1 MOL1         0.3624
@<TRIPOS>BOND
    1     1     2    1
    2     1     3    1
    3     1     4    1
    4     1     5    1
    5     5     6    1
    6     5     7    1
    7     5     8    1
    8     8     9    1
    9     8    10    1
   10     8    11    1
   11    11    12    1
   12    11    13    1
   13    11    14    1
   14    14    15    1
   15    14    16    1
   16    14    17    1
   17    17    18    1
   18    17    19    1
   19    17    20    1
   20    20    21    1
   21    20    22    1
   22    20    23    1
   23    23    24    1
   24    23    25    1
   25    23    26    1
@<TRIPOS>SUBSTRUCTURE
       1 MOL1            1 RESIDUE      1      MOL     
@<SCITEGIC>MOL_PROPERTY
VM2 Rank
SciTegic.value.IntegerValue
80

@<SCITEGIC>MOL_PROPERTY
Conf_Id
SciTegic.value.IntegerValue
1308

@<SCITEGIC>MOL_PROPERTY
Probability
SciTegic.value.DoubleValue
0.24

@<SCITEGIC>MOL_PROPERTY
Sum Probability
SciTegic.value.DoubleValue
95.96

@<SCITEGIC>MOL_PROPERTY
Delta G
SciTegic.value.DoubleValue
2.046

@<SCITEGIC>MOL_PROPERTY
G
SciTegic.value.DoubleValue
50.307

@<SCITEGIC>MOL_PROPERTY
E
SciTegic.value.DoubleValue
17.280

@<SCITEGIC>MOL_PROPERTY
-TS
SciTegic.value.DoubleValue
33.027

@<SCITEGIC>MOL_PROPERTY
U+W
SciTegic.value.DoubleValue
-4.182

@<SCITEGIC>MOL_PROPERTY
U
SciTegic.value.DoubleValue
49.857

@<SCITEGIC>MOL_PROPERTY
W
SciTegic.value.DoubleValue
-54.038

@<SCITEGIC>MOL_PROPERTY
W(PB)
SciTegic.value.DoubleValue
-56.299

@<SCITEGIC>MOL_PROPERTY
W(SA)
SciTegic.value.DoubleValue
2.260

@<SCITEGIC>MOL_PROPERTY
Valence
SciTegic.value.DoubleValue
3.483

@<SCITEGIC>MOL_PROPERTY
Coulomb
SciTegic.value.DoubleValue
45.719

@<SCITEGIC>MOL_PROPERTY
VdW
SciTegic.value.DoubleValue
0.655

@<SCITEGIC>MOL_PROPERTY
VdW6
SciTegic.value.DoubleValue
-8.795

@<SCITEGIC>MOL_PROPERTY
VdW12
SciTegic.value.DoubleValue
9.450

@<SCITEGIC>MOL_PROPERTY
Bond
SciTegic.value.DoubleValue
0.257

@<SCITEGIC>MOL_PROPERTY
Angle
SciTegic.value.DoubleValue
1.140

@<SCITEGIC>MOL_PROPERTY
Pdih
SciTegic.value.DoubleValue
2.086

@<SCITEGIC>MOL_PROPERTY
Idih
SciTegic.value.DoubleValue
0.000

@<SCITEGIC>MOL_PROPERTY
Tether
SciTegic.value.DoubleValue
0.000

@<TRIPOS>MOLECULE
guest-s14_vm2.mol2 : vm2 ligand conformer 81
          26          25           1
SMALL
USER_CHARGES
 
@<TRIPOS>ATOM
       1    C1      20.617895   20.363756   20.538967 C.3        1 MOL1        -0.2400
       2    H1      21.559248   20.288886   21.097285 H          1 MOL1         0.0971
       3    H2      20.860549   20.720412   19.529601 H          1 MOL1         0.0971
       4    H3      19.990560   21.124144   21.021932 H          1 MOL1         0.0971
       5    C2      19.888481   19.002827   20.470820 C.3        1 MOL1        -0.1385
       6    H4      20.546540   18.253133   20.009701 H          1 MOL1         0.0960
       7    H5      19.019155   19.099560   19.805485 H          1 MOL1         0.0960
       8    C3      19.404106   18.497163   21.850916 C.3        1 MOL1        -0.1409
       9    H6      18.728054   19.243317   22.288748 H          1 MOL1         0.0960
      10    H7      18.807655   17.586823   21.700587 H          1 MOL1         0.0960
      11    C4      20.562520   18.186815   22.831950 C.3        1 MOL1        -0.1409
      12    H8      21.110838   19.106928   23.070061 H          1 MOL1         0.0960
      13    H9      21.283215   17.522608   22.335496 H          1 MOL1         0.0960
      14    C5      20.092197   17.506564   24.143488 C.3        1 MOL1        -0.1409
      15    H10     19.636115   16.536791   23.901248 H          1 MOL1         0.0960
      16    H11     20.972327   17.275076   24.758295 H          1 MOL1         0.0960
      17    C6      19.085491   18.336836   24.982492 C.3        1 MOL1        -0.1450
      18    H12     18.852319   17.793546   25.907779 H          1 MOL1         0.0960
      19    H13     18.135881   18.423836   24.439193 H          1 MOL1         0.0960
      20    C7      19.585102   19.751060   25.339944 C.3        1 MOL1         0.0172
      21    H14     19.787466   20.312935   24.424327 H          1 MOL1         0.0934
      22    H15     18.809005   20.280388   25.899356 H          1 MOL1         0.0934
      23    N1      20.845208   19.753980   26.182423 N.4        1 MOL1        -0.5956
      24    H16     21.152271   20.706691   26.406285 H          1 MOL1         0.3624
      25    H17     21.622048   19.291397   25.700393 H          1 MOL1         0.3624
      26    H18     20.707626   19.266069   27.073403 H          1 MOL1         0.3624
@<TRIPOS>BOND
    1     1     2    1
    2     1     3    1
    3     1     4    1
    4     1     5    1
    5     5     6    1
    6     5     7    1
    7     5     8    1
    8     8     9    1
    9     8    10    1
   10     8    11    1
   11    11    12    1
   12    11    13    1
   13    11    14    1
   14    14    15    1
   15    14    16    1
   16    14    17    1
   17    17    18    1
   18    17    19    1
   19    17    20    1
   20    20    21    1
   21    20    22    1
   22    20    23    1
   23    23    24    1
   24    23    25    1
   25    23    26    1
@<TRIPOS>SUBSTRUCTURE
       1 MOL1            1 RESIDUE      1      MOL     
@<SCITEGIC>MOL_PROPERTY
VM2 Rank
SciTegic.value.IntegerValue
81

@<SCITEGIC>MOL_PROPERTY
Conf_Id
SciTegic.value.IntegerValue
1105

@<SCITEGIC>MOL_PROPERTY
Probability
SciTegic.value.DoubleValue
0.24

@<SCITEGIC>MOL_PROPERTY
Sum Probability
SciTegic.value.DoubleValue
96.20

@<SCITEGIC>MOL_PROPERTY
Delta G
SciTegic.value.DoubleValue
2.057

@<SCITEGIC>MOL_PROPERTY
G
SciTegic.value.DoubleValue
50.318

@<SCITEGIC>MOL_PROPERTY
E
SciTegic.value.DoubleValue
17.291

@<SCITEGIC>MOL_PROPERTY
-TS
SciTegic.value.DoubleValue
33.027

@<SCITEGIC>MOL_PROPERTY
U+W
SciTegic.value.DoubleValue
-4.171

@<SCITEGIC>MOL_PROPERTY
U
SciTegic.value.DoubleValue
49.857

@<SCITEGIC>MOL_PROPERTY
W
SciTegic.value.DoubleValue
-54.027

@<SCITEGIC>MOL_PROPERTY
W(PB)
SciTegic.value.DoubleValue
-56.274

@<SCITEGIC>MOL_PROPERTY
W(SA)
SciTegic.value.DoubleValue
2.247

@<SCITEGIC>MOL_PROPERTY
Valence
SciTegic.value.DoubleValue
3.483

@<SCITEGIC>MOL_PROPERTY
Coulomb
SciTegic.value.DoubleValue
45.718

@<SCITEGIC>MOL_PROPERTY
VdW
SciTegic.value.DoubleValue
0.655

@<SCITEGIC>MOL_PROPERTY
VdW6
SciTegic.value.DoubleValue
-8.795

@<SCITEGIC>MOL_PROPERTY
VdW12
SciTegic.value.DoubleValue
9.450

@<SCITEGIC>MOL_PROPERTY
Bond
SciTegic.value.DoubleValue
0.257

@<SCITEGIC>MOL_PROPERTY
Angle
SciTegic.value.DoubleValue
1.140

@<SCITEGIC>MOL_PROPERTY
Pdih
SciTegic.value.DoubleValue
2.086

@<SCITEGIC>MOL_PROPERTY
Idih
SciTegic.value.DoubleValue
0.000

@<SCITEGIC>MOL_PROPERTY
Tether
SciTegic.value.DoubleValue
0.000

@<TRIPOS>MOLECULE
guest-s14_vm2.mol2 : vm2 ligand conformer 82
          26          25           1
SMALL
USER_CHARGES
 
@<TRIPOS>ATOM
       1    C1      19.322759   19.545329   19.745946 C.3        1 MOL1        -0.2400
       2    H1      20.107436   20.148900   19.271416 H          1 MOL1         0.0971
       3    H2      18.868020   18.914792   18.970936 H          1 MOL1         0.0971
       4    H3      18.548839   20.226226   20.123601 H          1 MOL1         0.0971
       5    C2      19.901249   18.677973   20.883938 C.3        1 MOL1        -0.1385
       6    H4      20.649832   17.987156   20.471606 H          1 MOL1         0.0960
       7    H5      19.096893   18.061086   21.306137 H          1 MOL1         0.0960
       8    C3      20.545401   19.545313   21.990864 C.3        1 MOL1        -0.1409
       9    H6      21.299405   20.201889   21.535282 H          1 MOL1         0.0960
      10    H7      19.789820   20.211771   22.427223 H          1 MOL1         0.0960
      11    C4      21.231211   18.716194   23.107207 C.3        1 MOL1        -0.1409
      12    H8      21.711325   19.405526   23.814543 H          1 MOL1         0.0960
      13    H9      22.049173   18.131907   22.663719 H          1 MOL1         0.0960
      14    C5      20.295823   17.750622   23.883928 C.3        1 MOL1        -0.1409
      15    H10     19.944384   16.958801   23.209263 H          1 MOL1         0.0960
      16    H11     20.884331   17.234548   24.654238 H          1 MOL1         0.0960
      17    C6      19.068527   18.428094   24.547813 C.3        1 MOL1        -0.1450
      18    H12     18.494171   17.673208   25.100887 H          1 MOL1         0.0960
      19    H13     18.393018   18.809516   23.771445 H          1 MOL1         0.0960
      20    C7      19.433160   19.583524   25.501300 C.3        1 MOL1         0.0172
      21    H14     19.980103   20.355110   24.953234 H          1 MOL1         0.0934
      22    H15     18.517519   20.031356   25.896890 H          1 MOL1         0.0934
      23    N1      20.282870   19.151950   26.680003 N.4        1 MOL1        -0.5956
      24    H16     19.807813   18.447230   27.253153 H          1 MOL1         0.3624
      25    H17     20.506998   19.939690   27.297497 H          1 MOL1         0.3624
      26    H18     21.172218   18.744955   26.374651 H          1 MOL1         0.3624
@<TRIPOS>BOND
    1     1     2    1
    2     1     3    1
    3     1     4    1
    4     1     5    1
    5     5     6    1
    6     5     7    1
    7     5     8    1
    8     8     9    1
    9     8    10    1
   10     8    11    1
   11    11    12    1
   12    11    13    1
   13    11    14    1
   14    14    15    1
   15    14    16    1
   16    14    17    1
   17    17    18    1
   18    17    19    1
   19    17    20    1
   20    20    21    1
   21    20    22    1
   22    20    23    1
   23    23    24    1
   24    23    25    1
   25    23    26    1
@<TRIPOS>SUBSTRUCTURE
       1 MOL1            1 RESIDUE      1      MOL     
@<SCITEGIC>MOL_PROPERTY
VM2 Rank
SciTegic.value.IntegerValue
82

@<SCITEGIC>MOL_PROPERTY
Conf_Id
SciTegic.value.IntegerValue
575

@<SCITEGIC>MOL_PROPERTY
Probability
SciTegic.value.DoubleValue
0.21

@<SCITEGIC>MOL_PROPERTY
Sum Probability
SciTegic.value.DoubleValue
96.40

@<SCITEGIC>MOL_PROPERTY
Delta G
SciTegic.value.DoubleValue
2.130

@<SCITEGIC>MOL_PROPERTY
G
SciTegic.value.DoubleValue
50.392

@<SCITEGIC>MOL_PROPERTY
E
SciTegic.value.DoubleValue
17.162

@<SCITEGIC>MOL_PROPERTY
-TS
SciTegic.value.DoubleValue
33.230

@<SCITEGIC>MOL_PROPERTY
U+W
SciTegic.value.DoubleValue
-4.300

@<SCITEGIC>MOL_PROPERTY
U
SciTegic.value.DoubleValue
49.635

@<SCITEGIC>MOL_PROPERTY
W
SciTegic.value.DoubleValue
-53.934

@<SCITEGIC>MOL_PROPERTY
W(PB)
SciTegic.value.DoubleValue
-56.177

@<SCITEGIC>MOL_PROPERTY
W(SA)
SciTegic.value.DoubleValue
2.243

@<SCITEGIC>MOL_PROPERTY
Valence
SciTegic.value.DoubleValue
3.474

@<SCITEGIC>MOL_PROPERTY
Coulomb
SciTegic.value.DoubleValue
45.628

@<SCITEGIC>MOL_PROPERTY
VdW
SciTegic.value.DoubleValue
0.532

@<SCITEGIC>MOL_PROPERTY
VdW6
SciTegic.value.DoubleValue
-9.030

@<SCITEGIC>MOL_PROPERTY
VdW12
SciTegic.value.DoubleValue
9.562

@<SCITEGIC>MOL_PROPERTY
Bond
SciTegic.value.DoubleValue
0.265

@<SCITEGIC>MOL_PROPERTY
Angle
SciTegic.value.DoubleValue
1.304

@<SCITEGIC>MOL_PROPERTY
Pdih
SciTegic.value.DoubleValue
1.905

@<SCITEGIC>MOL_PROPERTY
Idih
SciTegic.value.DoubleValue
0.000

@<SCITEGIC>MOL_PROPERTY
Tether
SciTegic.value.DoubleValue
0.000

@<TRIPOS>MOLECULE
guest-s14_vm2.mol2 : vm2 ligand conformer 83
          26          25           1
SMALL
USER_CHARGES
 
@<TRIPOS>ATOM
       1    C1      19.874902   19.909559   19.764317 C.3        1 MOL1        -0.2400
       2    H1      20.668653   20.102795   19.031086 H          1 MOL1         0.0971
       3    H2      19.034737   19.440957   19.235421 H          1 MOL1         0.0971
       4    H3      19.535352   20.877094   20.156459 H          1 MOL1         0.0971
       5    C2      20.391772   19.001603   20.900299 C.3        1 MOL1        -0.1385
       6    H4      20.751938   18.054479   20.475026 H          1 MOL1         0.0960
       7    H5      21.254365   19.484624   21.378228 H          1 MOL1         0.0960
       8    C3      19.290737   18.717495   21.948874 C.3        1 MOL1        -0.1409
       9    H6      18.954602   19.660720   22.399224 H          1 MOL1         0.0960
      10    H7      18.412981   18.297410   21.438735 H          1 MOL1         0.0960
      11    C4      19.731358   17.726652   23.057065 C.3        1 MOL1        -0.1409
      12    H8      19.967840   16.758690   22.594179 H          1 MOL1         0.0960
      13    H9      18.876810   17.535425   23.719781 H          1 MOL1         0.0960
      14    C5      20.949196   18.181789   23.905765 C.3        1 MOL1        -0.1409
      15    H10     21.156564   17.414230   24.663328 H          1 MOL1         0.0960
      16    H11     21.845878   18.213487   23.272822 H          1 MOL1         0.0960
      17    C6      20.777418   19.555695   24.604942 C.3        1 MOL1        -0.1450
      18    H12     20.728095   20.350324   23.849514 H          1 MOL1         0.0960
      19    H13     21.670513   19.769046   25.207013 H          1 MOL1         0.0960
      20    C7      19.528618   19.646498   25.504590 C.3        1 MOL1         0.0172
      21    H14     19.458046   20.651884   25.928458 H          1 MOL1         0.0934
      22    H15     18.630685   19.464781   24.908301 H          1 MOL1         0.0934
      23    N1      19.537000   18.659710   26.655148 N.4        1 MOL1        -0.5956
      24    H16     20.344186   18.800918   27.271036 H          1 MOL1         0.3624
      25    H17     19.576116   17.691787   26.321352 H          1 MOL1         0.3624
      26    H18     18.696763   18.745137   27.237187 H          1 MOL1         0.3624
@<TRIPOS>BOND
    1     1     2    1
    2     1     3    1
    3     1     4    1
    4     1     5    1
    5     5     6    1
    6     5     7    1
    7     5     8    1
    8     8     9    1
    9     8    10    1
   10     8    11    1
   11    11    12    1
   12    11    13    1
   13    11    14    1
   14    14    15    1
   15    14    16    1
   16    14    17    1
   17    17    18    1
   18    17    19    1
   19    17    20    1
   20    20    21    1
   21    20    22    1
   22    20    23    1
   23    23    24    1
   24    23    25    1
   25    23    26    1
@<TRIPOS>SUBSTRUCTURE
       1 MOL1            1 RESIDUE      1      MOL     
@<SCITEGIC>MOL_PROPERTY
VM2 Rank
SciTegic.value.IntegerValue
83

@<SCITEGIC>MOL_PROPERTY
Conf_Id
SciTegic.value.IntegerValue
1085

@<SCITEGIC>MOL_PROPERTY
Probability
SciTegic.value.DoubleValue
0.21

@<SCITEGIC>MOL_PROPERTY
Sum Probability
SciTegic.value.DoubleValue
96.61

@<SCITEGIC>MOL_PROPERTY
Delta G
SciTegic.value.DoubleValue
2.134

@<SCITEGIC>MOL_PROPERTY
G
SciTegic.value.DoubleValue
50.396

@<SCITEGIC>MOL_PROPERTY
E
SciTegic.value.DoubleValue
17.166

@<SCITEGIC>MOL_PROPERTY
-TS
SciTegic.value.DoubleValue
33.230

@<SCITEGIC>MOL_PROPERTY
U+W
SciTegic.value.DoubleValue
-4.296

@<SCITEGIC>MOL_PROPERTY
U
SciTegic.value.DoubleValue
49.634

@<SCITEGIC>MOL_PROPERTY
W
SciTegic.value.DoubleValue
-53.930

@<SCITEGIC>MOL_PROPERTY
W(PB)
SciTegic.value.DoubleValue
-56.187

@<SCITEGIC>MOL_PROPERTY
W(SA)
SciTegic.value.DoubleValue
2.257

@<SCITEGIC>MOL_PROPERTY
Valence
SciTegic.value.DoubleValue
3.474

@<SCITEGIC>MOL_PROPERTY
Coulomb
SciTegic.value.DoubleValue
45.628

@<SCITEGIC>MOL_PROPERTY
VdW
SciTegic.value.DoubleValue
0.532

@<SCITEGIC>MOL_PROPERTY
VdW6
SciTegic.value.DoubleValue
-9.030

@<SCITEGIC>MOL_PROPERTY
VdW12
SciTegic.value.DoubleValue
9.562

@<SCITEGIC>MOL_PROPERTY
Bond
SciTegic.value.DoubleValue
0.265

@<SCITEGIC>MOL_PROPERTY
Angle
SciTegic.value.DoubleValue
1.304

@<SCITEGIC>MOL_PROPERTY
Pdih
SciTegic.value.DoubleValue
1.905

@<SCITEGIC>MOL_PROPERTY
Idih
SciTegic.value.DoubleValue
0.000

@<SCITEGIC>MOL_PROPERTY
Tether
SciTegic.value.DoubleValue
0.000

@<TRIPOS>MOLECULE
guest-s14_vm2.mol2 : vm2 ligand conformer 84
          26          25           1
SMALL
USER_CHARGES
 
@<TRIPOS>ATOM
       1    C1      19.212056   19.718706   20.175086 C.3        1 MOL1        -0.2400
       2    H1      18.341763   19.522310   20.813532 H          1 MOL1         0.0971
       3    H2      19.076676   20.711602   19.727155 H          1 MOL1         0.0971
       4    H3      19.215790   18.980888   19.362354 H          1 MOL1         0.0971
       5    C2      20.529471   19.663107   20.981006 C.3        1 MOL1        -0.1385
       6    H4      20.497996   20.400323   21.794358 H          1 MOL1         0.0960
       7    H5      21.357306   19.971259   20.327311 H          1 MOL1         0.0960
       8    C3      20.844369   18.254924   21.546436 C.3        1 MOL1        -0.1409
       9    H6      20.971834   17.557442   20.707207 H          1 MOL1         0.0960
      10    H7      21.817682   18.283387   22.053769 H          1 MOL1         0.0960
      11    C4      19.774817   17.675856   22.511590 C.3        1 MOL1        -0.1409
      12    H8      20.117637   16.694313   22.866649 H          1 MOL1         0.0960
      13    H9      18.851194   17.479041   21.951118 H          1 MOL1         0.0960
      14    C5      19.436779   18.562500   23.737968 C.3        1 MOL1        -0.1409
      15    H10     19.000608   19.513342   23.404189 H          1 MOL1         0.0960
      16    H11     18.652450   18.056694   24.316191 H          1 MOL1         0.0960
      17    C6      20.654630   18.838576   24.654790 C.3        1 MOL1        -0.1450
      18    H12     21.428685   19.374616   24.091609 H          1 MOL1         0.0960
      19    H13     21.102428   17.890749   24.981558 H          1 MOL1         0.0960
      20    C7      20.289673   19.687732   25.887699 C.3        1 MOL1         0.0172
      21    H14     21.200122   19.930509   26.442391 H          1 MOL1         0.0934
      22    H15     19.826813   20.624443   25.565648 H          1 MOL1         0.0934
      23    N1      19.339206   18.997599   26.846424 N.4        1 MOL1        -0.5956
      24    H16     19.128750   19.583585   27.661652 H          1 MOL1         0.3624
      25    H17     19.729118   18.118713   27.202108 H          1 MOL1         0.3624
      26    H18     18.444953   18.773460   26.399342 H          1 MOL1         0.3624
@<TRIPOS>BOND
    1     1     2    1
    2     1     3    1
    3     1     4    1
    4     1     5    1
    5     5     6    1
    6     5     7    1
    7     5     8    1
    8     8     9    1
    9     8    10    1
   10     8    11    1
   11    11    12    1
   12    11    13    1
   13    11    14    1
   14    14    15    1
   15    14    16    1
   16    14    17    1
   17    17    18    1
   18    17    19    1
   19    17    20    1
   20    20    21    1
   21    20    22    1
   22    20    23    1
   23    23    24    1
   24    23    25    1
   25    23    26    1
@<TRIPOS>SUBSTRUCTURE
       1 MOL1            1 RESIDUE      1      MOL     
@<SCITEGIC>MOL_PROPERTY
VM2 Rank
SciTegic.value.IntegerValue
84

@<SCITEGIC>MOL_PROPERTY
Conf_Id
SciTegic.value.IntegerValue
477

@<SCITEGIC>MOL_PROPERTY
Probability
SciTegic.value.DoubleValue
0.20

@<SCITEGIC>MOL_PROPERTY
Sum Probability
SciTegic.value.DoubleValue
96.81

@<SCITEGIC>MOL_PROPERTY
Delta G
SciTegic.value.DoubleValue
2.164

@<SCITEGIC>MOL_PROPERTY
G
SciTegic.value.DoubleValue
50.425

@<SCITEGIC>MOL_PROPERTY
E
SciTegic.value.DoubleValue
17.208

@<SCITEGIC>MOL_PROPERTY
-TS
SciTegic.value.DoubleValue
33.217

@<SCITEGIC>MOL_PROPERTY
U+W
SciTegic.value.DoubleValue
-4.254

@<SCITEGIC>MOL_PROPERTY
U
SciTegic.value.DoubleValue
49.638

@<SCITEGIC>MOL_PROPERTY
W
SciTegic.value.DoubleValue
-53.891

@<SCITEGIC>MOL_PROPERTY
W(PB)
SciTegic.value.DoubleValue
-56.131

@<SCITEGIC>MOL_PROPERTY
W(SA)
SciTegic.value.DoubleValue
2.239

@<SCITEGIC>MOL_PROPERTY
Valence
SciTegic.value.DoubleValue
3.691

@<SCITEGIC>MOL_PROPERTY
Coulomb
SciTegic.value.DoubleValue
45.199

@<SCITEGIC>MOL_PROPERTY
VdW
SciTegic.value.DoubleValue
0.747

@<SCITEGIC>MOL_PROPERTY
VdW6
SciTegic.value.DoubleValue
-8.826

@<SCITEGIC>MOL_PROPERTY
VdW12
SciTegic.value.DoubleValue
9.573

@<SCITEGIC>MOL_PROPERTY
Bond
SciTegic.value.DoubleValue
0.278

@<SCITEGIC>MOL_PROPERTY
Angle
SciTegic.value.DoubleValue
1.445

@<SCITEGIC>MOL_PROPERTY
Pdih
SciTegic.value.DoubleValue
1.969

@<SCITEGIC>MOL_PROPERTY
Idih
SciTegic.value.DoubleValue
0.000

@<SCITEGIC>MOL_PROPERTY
Tether
SciTegic.value.DoubleValue
0.000

@<TRIPOS>MOLECULE
guest-s14_vm2.mol2 : vm2 ligand conformer 85
          26          25           1
SMALL
USER_CHARGES
 
@<TRIPOS>ATOM
       1    C1      19.739005   20.066205   20.192392 C.3        1 MOL1        -0.2400
       2    H1      20.453314   19.797097   19.403554 H          1 MOL1         0.0971
       3    H2      18.900813   20.595174   19.720757 H          1 MOL1         0.0971
       4    H3      20.230932   20.768950   20.876314 H          1 MOL1         0.0971
       5    C2      19.235840   18.809369   20.937622 C.3        1 MOL1        -0.1385
       6    H4      18.658535   18.190130   20.237017 H          1 MOL1         0.0960
       7    H5      18.532999   19.103711   21.728444 H          1 MOL1         0.0960
       8    C3      20.379698   17.948335   21.530965 C.3        1 MOL1        -0.1409
       9    H6      19.948205   17.049812   21.991403 H          1 MOL1         0.0960
      10    H7      21.009624   17.582296   20.708624 H          1 MOL1         0.0960
      11    C4      21.286137   18.673448   22.562161 C.3        1 MOL1        -0.1409
      12    H8      21.855179   19.461761   22.051576 H          1 MOL1         0.0960
      13    H9      22.036998   17.961222   22.930888 H          1 MOL1         0.0960
      14    C5      20.546982   19.295387   23.775113 C.3        1 MOL1        -0.1409
      15    H10     21.292301   19.799151   24.404457 H          1 MOL1         0.0960
      16    H11     19.859923   20.080640   23.432940 H          1 MOL1         0.0960
      17    C6      19.773207   18.256986   24.625369 C.3        1 MOL1        -0.1450
      18    H12     20.453238   17.462367   24.959758 H          1 MOL1         0.0960
      19    H13     19.003340   17.774215   24.010624 H          1 MOL1         0.0960
      20    C7      19.078939   18.888607   25.847404 C.3        1 MOL1         0.0172
      21    H14     18.414749   19.692501   25.518782 H          1 MOL1         0.0934
      22    H15     18.473176   18.130621   26.351438 H          1 MOL1         0.0934
      23    N1      20.041191   19.460664   26.869974 N.4        1 MOL1        -0.5956
      24    H16     20.679359   18.745538   27.233732 H          1 MOL1         0.3624
      25    H17     19.547511   19.859495   27.675879 H          1 MOL1         0.3624
      26    H18     20.618420   20.207864   26.472094 H          1 MOL1         0.3624
@<TRIPOS>BOND
    1     1     2    1
    2     1     3    1
    3     1     4    1
    4     1     5    1
    5     5     6    1
    6     5     7    1
    7     5     8    1
    8     8     9    1
    9     8    10    1
   10     8    11    1
   11    11    12    1
   12    11    13    1
   13    11    14    1
   14    14    15    1
   15    14    16    1
   16    14    17    1
   17    17    18    1
   18    17    19    1
   19    17    20    1
   20    20    21    1
   21    20    22    1
   22    20    23    1
   23    23    24    1
   24    23    25    1
   25    23    26    1
@<TRIPOS>SUBSTRUCTURE
       1 MOL1            1 RESIDUE      1      MOL     
@<SCITEGIC>MOL_PROPERTY
VM2 Rank
SciTegic.value.IntegerValue
85

@<SCITEGIC>MOL_PROPERTY
Conf_Id
SciTegic.value.IntegerValue
1370

@<SCITEGIC>MOL_PROPERTY
Probability
SciTegic.value.DoubleValue
0.19

@<SCITEGIC>MOL_PROPERTY
Sum Probability
SciTegic.value.DoubleValue
97.00

@<SCITEGIC>MOL_PROPERTY
Delta G
SciTegic.value.DoubleValue
2.186

@<SCITEGIC>MOL_PROPERTY
G
SciTegic.value.DoubleValue
50.447

@<SCITEGIC>MOL_PROPERTY
E
SciTegic.value.DoubleValue
17.230

@<SCITEGIC>MOL_PROPERTY
-TS
SciTegic.value.DoubleValue
33.217

@<SCITEGIC>MOL_PROPERTY
U+W
SciTegic.value.DoubleValue
-4.232

@<SCITEGIC>MOL_PROPERTY
U
SciTegic.value.DoubleValue
49.638

@<SCITEGIC>MOL_PROPERTY
W
SciTegic.value.DoubleValue
-53.869

@<SCITEGIC>MOL_PROPERTY
W(PB)
SciTegic.value.DoubleValue
-56.099

@<SCITEGIC>MOL_PROPERTY
W(SA)
SciTegic.value.DoubleValue
2.229

@<SCITEGIC>MOL_PROPERTY
Valence
SciTegic.value.DoubleValue
3.691

@<SCITEGIC>MOL_PROPERTY
Coulomb
SciTegic.value.DoubleValue
45.199

@<SCITEGIC>MOL_PROPERTY
VdW
SciTegic.value.DoubleValue
0.747

@<SCITEGIC>MOL_PROPERTY
VdW6
SciTegic.value.DoubleValue
-8.825

@<SCITEGIC>MOL_PROPERTY
VdW12
SciTegic.value.DoubleValue
9.572

@<SCITEGIC>MOL_PROPERTY
Bond
SciTegic.value.DoubleValue
0.278

@<SCITEGIC>MOL_PROPERTY
Angle
SciTegic.value.DoubleValue
1.445

@<SCITEGIC>MOL_PROPERTY
Pdih
SciTegic.value.DoubleValue
1.969

@<SCITEGIC>MOL_PROPERTY
Idih
SciTegic.value.DoubleValue
0.000

@<SCITEGIC>MOL_PROPERTY
Tether
SciTegic.value.DoubleValue
0.000

@<TRIPOS>MOLECULE
guest-s14_vm2.mol2 : vm2 ligand conformer 86
          26          25           1
SMALL
USER_CHARGES
 
@<TRIPOS>ATOM
       1    C1      19.269846   19.273679   19.994070 C.3        1 MOL1        -0.2400
       2    H1      19.644927   20.249725   19.660022 H          1 MOL1         0.0971
       3    H2      18.812334   18.775467   19.129601 H          1 MOL1         0.0971
       4    H3      18.478113   19.443921   20.734262 H          1 MOL1         0.0971
       5    C2      20.411491   18.409437   20.575422 C.3        1 MOL1        -0.1385
       6    H4      21.116606   18.166183   19.768386 H          1 MOL1         0.0960
       7    H5      20.009519   17.447812   20.921195 H          1 MOL1         0.0960
       8    C3      21.192878   19.106967   21.718160 C.3        1 MOL1        -0.1409
       9    H6      21.997451   18.439161   22.055451 H          1 MOL1         0.0960
      10    H7      21.692551   19.997288   21.312206 H          1 MOL1         0.0960
      11    C4      20.342986   19.531657   22.943831 C.3        1 MOL1        -0.1409
      12    H8      19.599507   20.281094   22.641937 H          1 MOL1         0.0960
      13    H9      21.008375   20.036979   23.655888 H          1 MOL1         0.0960
      14    C5      19.635627   18.345917   23.647657 C.3        1 MOL1        -0.1409
      15    H10     18.948258   17.859350   22.943566 H          1 MOL1         0.0960
      16    H11     20.375882   17.585080   23.928437 H          1 MOL1         0.0960
      17    C6      18.820067   18.775079   24.893352 C.3        1 MOL1        -0.1450
      18    H12     18.302443   17.899114   25.306312 H          1 MOL1         0.0960
      19    H13     18.034149   19.477930   24.586472 H          1 MOL1         0.0960
      20    C7      19.663718   19.430706   26.005618 C.3        1 MOL1         0.0172
      21    H14     20.143206   20.335147   25.622800 H          1 MOL1         0.0934
      22    H15     19.010729   19.718419   26.834059 H          1 MOL1         0.0934
      23    N1      20.744387   18.525559   26.562890 N.4        1 MOL1        -0.5956
      24    H16     21.411128   18.243815   25.837574 H          1 MOL1         0.3624
      25    H17     20.352202   17.667852   26.964636 H          1 MOL1         0.3624
      26    H18     21.282217   18.986032   27.305081 H          1 MOL1         0.3624
@<TRIPOS>BOND
    1     1     2    1
    2     1     3    1
    3     1     4    1
    4     1     5    1
    5     5     6    1
    6     5     7    1
    7     5     8    1
    8     8     9    1
    9     8    10    1
   10     8    11    1
   11    11    12    1
   12    11    13    1
   13    11    14    1
   14    14    15    1
   15    14    16    1
   16    14    17    1
   17    17    18    1
   18    17    19    1
   19    17    20    1
   20    20    21    1
   21    20    22    1
   22    20    23    1
   23    23    24    1
   24    23    25    1
   25    23    26    1
@<TRIPOS>SUBSTRUCTURE
       1 MOL1            1 RESIDUE      1      MOL     
@<SCITEGIC>MOL_PROPERTY
VM2 Rank
SciTegic.value.IntegerValue
86

@<SCITEGIC>MOL_PROPERTY
Conf_Id
SciTegic.value.IntegerValue
812

@<SCITEGIC>MOL_PROPERTY
Probability
SciTegic.value.DoubleValue
0.18

@<SCITEGIC>MOL_PROPERTY
Sum Probability
SciTegic.value.DoubleValue
97.18

@<SCITEGIC>MOL_PROPERTY
Delta G
SciTegic.value.DoubleValue
2.204

@<SCITEGIC>MOL_PROPERTY
G
SciTegic.value.DoubleValue
50.465

@<SCITEGIC>MOL_PROPERTY
E
SciTegic.value.DoubleValue
17.410

@<SCITEGIC>MOL_PROPERTY
-TS
SciTegic.value.DoubleValue
33.055

@<SCITEGIC>MOL_PROPERTY
U+W
SciTegic.value.DoubleValue
-4.052

@<SCITEGIC>MOL_PROPERTY
U
SciTegic.value.DoubleValue
49.822

@<SCITEGIC>MOL_PROPERTY
W
SciTegic.value.DoubleValue
-53.873

@<SCITEGIC>MOL_PROPERTY
W(PB)
SciTegic.value.DoubleValue
-56.119

@<SCITEGIC>MOL_PROPERTY
W(SA)
SciTegic.value.DoubleValue
2.246

@<SCITEGIC>MOL_PROPERTY
Valence
SciTegic.value.DoubleValue
3.548

@<SCITEGIC>MOL_PROPERTY
Coulomb
SciTegic.value.DoubleValue
45.475

@<SCITEGIC>MOL_PROPERTY
VdW
SciTegic.value.DoubleValue
0.799

@<SCITEGIC>MOL_PROPERTY
VdW6
SciTegic.value.DoubleValue
-8.640

@<SCITEGIC>MOL_PROPERTY
VdW12
SciTegic.value.DoubleValue
9.439

@<SCITEGIC>MOL_PROPERTY
Bond
SciTegic.value.DoubleValue
0.263

@<SCITEGIC>MOL_PROPERTY
Angle
SciTegic.value.DoubleValue
1.337

@<SCITEGIC>MOL_PROPERTY
Pdih
SciTegic.value.DoubleValue
1.948

@<SCITEGIC>MOL_PROPERTY
Idih
SciTegic.value.DoubleValue
0.000

@<SCITEGIC>MOL_PROPERTY
Tether
SciTegic.value.DoubleValue
0.000

@<TRIPOS>MOLECULE
guest-s14_vm2.mol2 : vm2 ligand conformer 87
          26          25           1
SMALL
USER_CHARGES
 
@<TRIPOS>ATOM
       1    C1      19.901147   18.394335   19.698677 C.3        1 MOL1        -0.2400
       2    H1      19.240378   17.612469   20.092691 H          1 MOL1         0.0971
       3    H2      19.279698   19.237193   19.369436 H          1 MOL1         0.0971
       4    H3      20.405442   17.983885   18.814291 H          1 MOL1         0.0971
       5    C2      20.938974   18.846585   20.751042 C.3        1 MOL1        -0.1385
       6    H4      21.652773   19.530305   20.270616 H          1 MOL1         0.0960
       7    H5      21.524169   17.980347   21.090022 H          1 MOL1         0.0960
       8    C3      20.310701   19.563918   21.970416 C.3        1 MOL1        -0.1409
       9    H6      21.127295   19.960991   22.586995 H          1 MOL1         0.0960
      10    H7      19.730457   20.431361   21.627139 H          1 MOL1         0.0960
      11    C4      19.412409   18.641623   22.833096 C.3        1 MOL1        -0.1409
      12    H8      19.990938   17.770917   23.168839 H          1 MOL1         0.0960
      13    H9      18.597442   18.244245   22.214622 H          1 MOL1         0.0960
      14    C5      18.776821   19.360424   24.051600 C.3        1 MOL1        -0.1409
      15    H10     18.133555   20.175089   23.691465 H          1 MOL1         0.0960
      16    H11     18.106141   18.658467   24.565112 H          1 MOL1         0.0960
      17    C6      19.789367   19.938170   25.075366 C.3        1 MOL1        -0.1450
      18    H12     19.238996   20.371837   25.920784 H          1 MOL1         0.0960
      19    H13     20.341341   20.770565   24.620779 H          1 MOL1         0.0960
      20    C7      20.799649   18.903241   25.609667 C.3        1 MOL1         0.0172
      21    H14     21.378537   18.490389   24.779383 H          1 MOL1         0.0934
      22    H15     21.493722   19.393931   26.297375 H          1 MOL1         0.0934
      23    N1      20.151931   17.750703   26.351135 N.4        1 MOL1        -0.5956
      24    H16     19.504457   17.232020   25.749797 H          1 MOL1         0.3624
      25    H17     19.617695   18.074150   27.164033 H          1 MOL1         0.3624
      26    H18     20.847203   17.080260   26.696365 H          1 MOL1         0.3624
@<TRIPOS>BOND
    1     1     2    1
    2     1     3    1
    3     1     4    1
    4     1     5    1
    5     5     6    1
    6     5     7    1
    7     5     8    1
    8     8     9    1
    9     8    10    1
   10     8    11    1
   11    11    12    1
   12    11    13    1
   13    11    14    1
   14    14    15    1
   15    14    16    1
   16    14    17    1
   17    17    18    1
   18    17    19    1
   19    17    20    1
   20    20    21    1
   21    20    22    1
   22    20    23    1
   23    23    24    1
   24    23    25    1
   25    23    26    1
@<TRIPOS>SUBSTRUCTURE
       1 MOL1            1 RESIDUE      1      MOL     
@<SCITEGIC>MOL_PROPERTY
VM2 Rank
SciTegic.value.IntegerValue
87

@<SCITEGIC>MOL_PROPERTY
Conf_Id
SciTegic.value.IntegerValue
817

@<SCITEGIC>MOL_PROPERTY
Probability
SciTegic.value.DoubleValue
0.18

@<SCITEGIC>MOL_PROPERTY
Sum Probability
SciTegic.value.DoubleValue
97.37

@<SCITEGIC>MOL_PROPERTY
Delta G
SciTegic.value.DoubleValue
2.208

@<SCITEGIC>MOL_PROPERTY
G
SciTegic.value.DoubleValue
50.469

@<SCITEGIC>MOL_PROPERTY
E
SciTegic.value.DoubleValue
17.492

@<SCITEGIC>MOL_PROPERTY
-TS
SciTegic.value.DoubleValue
32.977

@<SCITEGIC>MOL_PROPERTY
U+W
SciTegic.value.DoubleValue
-3.969

@<SCITEGIC>MOL_PROPERTY
U
SciTegic.value.DoubleValue
49.925

@<SCITEGIC>MOL_PROPERTY
W
SciTegic.value.DoubleValue
-53.895

@<SCITEGIC>MOL_PROPERTY
W(PB)
SciTegic.value.DoubleValue
-56.135

@<SCITEGIC>MOL_PROPERTY
W(SA)
SciTegic.value.DoubleValue
2.241

@<SCITEGIC>MOL_PROPERTY
Valence
SciTegic.value.DoubleValue
3.593

@<SCITEGIC>MOL_PROPERTY
Coulomb
SciTegic.value.DoubleValue
45.559

@<SCITEGIC>MOL_PROPERTY
VdW
SciTegic.value.DoubleValue
0.774

@<SCITEGIC>MOL_PROPERTY
VdW6
SciTegic.value.DoubleValue
-8.638

@<SCITEGIC>MOL_PROPERTY
VdW12
SciTegic.value.DoubleValue
9.412

@<SCITEGIC>MOL_PROPERTY
Bond
SciTegic.value.DoubleValue
0.265

@<SCITEGIC>MOL_PROPERTY
Angle
SciTegic.value.DoubleValue
1.266

@<SCITEGIC>MOL_PROPERTY
Pdih
SciTegic.value.DoubleValue
2.061

@<SCITEGIC>MOL_PROPERTY
Idih
SciTegic.value.DoubleValue
0.000

@<SCITEGIC>MOL_PROPERTY
Tether
SciTegic.value.DoubleValue
0.000

@<TRIPOS>MOLECULE
guest-s14_vm2.mol2 : vm2 ligand conformer 88
          26          25           1
SMALL
USER_CHARGES
 
@<TRIPOS>ATOM
       1    C1      20.707283   18.925042   19.725673 C.3        1 MOL1        -0.2400
       2    H1      20.926520   18.326797   18.831828 H          1 MOL1         0.0971
       3    H2      20.193736   19.838924   19.399948 H          1 MOL1         0.0971
       4    H3      21.666983   19.210318   20.173749 H          1 MOL1         0.0971
       5    C2      19.834307   18.119099   20.714337 C.3        1 MOL1        -0.1385
       6    H4      20.383144   17.228950   21.052182 H          1 MOL1         0.0960
       7    H5      18.947822   17.748971   20.180539 H          1 MOL1         0.0960
       8    C3      19.366634   18.942292   21.938997 C.3        1 MOL1        -0.1409
       9    H6      18.814938   19.828508   21.596606 H          1 MOL1         0.0960
      10    H7      18.651746   18.330911   22.504515 H          1 MOL1         0.0960
      11    C4      20.527025   19.375723   22.870342 C.3        1 MOL1        -0.1409
      12    H8      21.241604   19.985614   22.302888 H          1 MOL1         0.0960
      13    H9      21.082788   18.490024   23.205321 H          1 MOL1         0.0960
      14    C5      20.060918   20.206118   24.094508 C.3        1 MOL1        -0.1409
      15    H10     20.945613   20.528367   24.659946 H          1 MOL1         0.0960
      16    H11     19.583298   21.129866   23.739913 H          1 MOL1         0.0960
      17    C6      19.084017   19.473795   25.051853 C.3        1 MOL1        -0.1450
      18    H12     18.123565   19.310435   24.546825 H          1 MOL1         0.0960
      19    H13     18.863554   20.124552   25.908368 H          1 MOL1         0.0960
      20    C7      19.611033   18.120584   25.569827 C.3        1 MOL1         0.0172
      21    H14     18.855177   17.656491   26.209169 H          1 MOL1         0.0934
      22    H15     19.800407   17.451412   24.726455 H          1 MOL1         0.0934
      23    N1      20.889784   18.236346   26.375463 N.4        1 MOL1        -0.5956
      24    H16     21.215179   17.322297   26.708196 H          1 MOL1         0.3624
      25    H17     20.765681   18.829683   27.202131 H          1 MOL1         0.3624
      26    H18     21.648947   18.643957   25.821041 H          1 MOL1         0.3624
@<TRIPOS>BOND
    1     1     2    1
    2     1     3    1
    3     1     4    1
    4     1     5    1
    5     5     6    1
    6     5     7    1
    7     5     8    1
    8     8     9    1
    9     8    10    1
   10     8    11    1
   11    11    12    1
   12    11    13    1
   13    11    14    1
   14    14    15    1
   15    14    16    1
   16    14    17    1
   17    17    18    1
   18    17    19    1
   19    17    20    1
   20    20    21    1
   21    20    22    1
   22    20    23    1
   23    23    24    1
   24    23    25    1
   25    23    26    1
@<TRIPOS>SUBSTRUCTURE
       1 MOL1            1 RESIDUE      1      MOL     
@<SCITEGIC>MOL_PROPERTY
VM2 Rank
SciTegic.value.IntegerValue
88

@<SCITEGIC>MOL_PROPERTY
Conf_Id
SciTegic.value.IntegerValue
750

@<SCITEGIC>MOL_PROPERTY
Probability
SciTegic.value.DoubleValue
0.18

@<SCITEGIC>MOL_PROPERTY
Sum Probability
SciTegic.value.DoubleValue
97.55

@<SCITEGIC>MOL_PROPERTY
Delta G
SciTegic.value.DoubleValue
2.221

@<SCITEGIC>MOL_PROPERTY
G
SciTegic.value.DoubleValue
50.482

@<SCITEGIC>MOL_PROPERTY
E
SciTegic.value.DoubleValue
17.505

@<SCITEGIC>MOL_PROPERTY
-TS
SciTegic.value.DoubleValue
32.977

@<SCITEGIC>MOL_PROPERTY
U+W
SciTegic.value.DoubleValue
-3.956

@<SCITEGIC>MOL_PROPERTY
U
SciTegic.value.DoubleValue
49.926

@<SCITEGIC>MOL_PROPERTY
W
SciTegic.value.DoubleValue
-53.883

@<SCITEGIC>MOL_PROPERTY
W(PB)
SciTegic.value.DoubleValue
-56.157

@<SCITEGIC>MOL_PROPERTY
W(SA)
SciTegic.value.DoubleValue
2.275

@<SCITEGIC>MOL_PROPERTY
Valence
SciTegic.value.DoubleValue
3.593

@<SCITEGIC>MOL_PROPERTY
Coulomb
SciTegic.value.DoubleValue
45.559

@<SCITEGIC>MOL_PROPERTY
VdW
SciTegic.value.DoubleValue
0.774

@<SCITEGIC>MOL_PROPERTY
VdW6
SciTegic.value.DoubleValue
-8.638

@<SCITEGIC>MOL_PROPERTY
VdW12
SciTegic.value.DoubleValue
9.412

@<SCITEGIC>MOL_PROPERTY
Bond
SciTegic.value.DoubleValue
0.265

@<SCITEGIC>MOL_PROPERTY
Angle
SciTegic.value.DoubleValue
1.266

@<SCITEGIC>MOL_PROPERTY
Pdih
SciTegic.value.DoubleValue
2.061

@<SCITEGIC>MOL_PROPERTY
Idih
SciTegic.value.DoubleValue
0.000

@<SCITEGIC>MOL_PROPERTY
Tether
SciTegic.value.DoubleValue
0.000

@<TRIPOS>MOLECULE
guest-s14_vm2.mol2 : vm2 ligand conformer 89
          26          25           1
SMALL
USER_CHARGES
 
@<TRIPOS>ATOM
       1    C1      20.134906   19.843516   20.023029 C.3        1 MOL1        -0.2400
       2    H1      20.255675   20.614944   20.793757 H          1 MOL1         0.0971
       3    H2      20.812721   20.093258   19.196570 H          1 MOL1         0.0971
       4    H3      19.106754   19.895085   19.641998 H          1 MOL1         0.0971
       5    C2      20.451930   18.436009   20.576797 C.3        1 MOL1        -0.1385
       6    H4      21.476890   18.414468   20.970314 H          1 MOL1         0.0960
       7    H5      20.435378   17.717301   19.745623 H          1 MOL1         0.0960
       8    C3      19.450718   17.959137   21.659910 C.3        1 MOL1        -0.1409
       9    H6      18.455576   17.864585   21.203949 H          1 MOL1         0.0960
      10    H7      19.731493   16.946245   21.979726 H          1 MOL1         0.0960
      11    C4      19.338124   18.869650   22.910204 C.3        1 MOL1        -0.1409
      12    H8      18.579211   18.436487   23.574688 H          1 MOL1         0.0960
      13    H9      18.956590   19.857572   22.620385 H          1 MOL1         0.0960
      14    C5      20.672381   19.029190   23.682226 C.3        1 MOL1        -0.1409
      15    H10     21.066663   18.040377   23.951443 H          1 MOL1         0.0960
      16    H11     21.422330   19.489736   23.026148 H          1 MOL1         0.0960
      17    C6      20.541213   19.909326   24.950778 C.3        1 MOL1        -0.1450
      18    H12     20.219202   20.917917   24.659409 H          1 MOL1         0.0960
      19    H13     21.529953   20.026078   25.413971 H          1 MOL1         0.0960
      20    C7      19.555697   19.359433   26.002016 C.3        1 MOL1         0.0172
      21    H14     19.509715   20.047313   26.850660 H          1 MOL1         0.0934
      22    H15     18.554448   19.287861   25.569758 H          1 MOL1         0.0934
      23    N1      19.936031   17.992739   26.536038 N.4        1 MOL1        -0.5956
      24    H16     19.267146   17.657915   27.237915 H          1 MOL1         0.3624
      25    H17     20.859122   18.002037   26.981780 H          1 MOL1         0.3624
      26    H18     19.966415   17.291443   25.789532 H          1 MOL1         0.3624
@<TRIPOS>BOND
    1     1     2    1
    2     1     3    1
    3     1     4    1
    4     1     5    1
    5     5     6    1
    6     5     7    1
    7     5     8    1
    8     8     9    1
    9     8    10    1
   10     8    11    1
   11    11    12    1
   12    11    13    1
   13    11    14    1
   14    14    15    1
   15    14    16    1
   16    14    17    1
   17    17    18    1
   18    17    19    1
   19    17    20    1
   20    20    21    1
   21    20    22    1
   22    20    23    1
   23    23    24    1
   24    23    25    1
   25    23    26    1
@<TRIPOS>SUBSTRUCTURE
       1 MOL1            1 RESIDUE      1      MOL     
@<SCITEGIC>MOL_PROPERTY
VM2 Rank
SciTegic.value.IntegerValue
89

@<SCITEGIC>MOL_PROPERTY
Conf_Id
SciTegic.value.IntegerValue
697

@<SCITEGIC>MOL_PROPERTY
Probability
SciTegic.value.DoubleValue
0.18

@<SCITEGIC>MOL_PROPERTY
Sum Probability
SciTegic.value.DoubleValue
97.72

@<SCITEGIC>MOL_PROPERTY
Delta G
SciTegic.value.DoubleValue
2.225

@<SCITEGIC>MOL_PROPERTY
G
SciTegic.value.DoubleValue
50.486

@<SCITEGIC>MOL_PROPERTY
E
SciTegic.value.DoubleValue
17.431

@<SCITEGIC>MOL_PROPERTY
-TS
SciTegic.value.DoubleValue
33.055

@<SCITEGIC>MOL_PROPERTY
U+W
SciTegic.value.DoubleValue
-4.031

@<SCITEGIC>MOL_PROPERTY
U
SciTegic.value.DoubleValue
49.821

@<SCITEGIC>MOL_PROPERTY
W
SciTegic.value.DoubleValue
-53.852

@<SCITEGIC>MOL_PROPERTY
W(PB)
SciTegic.value.DoubleValue
-56.098

@<SCITEGIC>MOL_PROPERTY
W(SA)
SciTegic.value.DoubleValue
2.246

@<SCITEGIC>MOL_PROPERTY
Valence
SciTegic.value.DoubleValue
3.548

@<SCITEGIC>MOL_PROPERTY
Coulomb
SciTegic.value.DoubleValue
45.474

@<SCITEGIC>MOL_PROPERTY
VdW
SciTegic.value.DoubleValue
0.799

@<SCITEGIC>MOL_PROPERTY
VdW6
SciTegic.value.DoubleValue
-8.640

@<SCITEGIC>MOL_PROPERTY
VdW12
SciTegic.value.DoubleValue
9.439

@<SCITEGIC>MOL_PROPERTY
Bond
SciTegic.value.DoubleValue
0.263

@<SCITEGIC>MOL_PROPERTY
Angle
SciTegic.value.DoubleValue
1.337

@<SCITEGIC>MOL_PROPERTY
Pdih
SciTegic.value.DoubleValue
1.948

@<SCITEGIC>MOL_PROPERTY
Idih
SciTegic.value.DoubleValue
0.000

@<SCITEGIC>MOL_PROPERTY
Tether
SciTegic.value.DoubleValue
0.000

@<TRIPOS>MOLECULE
guest-s14_vm2.mol2 : vm2 ligand conformer 90
          26          25           1
SMALL
USER_CHARGES
 
@<TRIPOS>ATOM
       1    C1      20.431442   19.214793   19.895365 C.3        1 MOL1        -0.2400
       2    H1      20.473175   20.248907   20.259275 H          1 MOL1         0.0971
       3    H2      21.272054   19.073270   19.203873 H          1 MOL1         0.0971
       4    H3      19.502084   19.087976   19.325162 H          1 MOL1         0.0971
       5    C2      20.511176   18.201396   21.059323 C.3        1 MOL1        -0.1385
       6    H4      21.440838   18.357253   21.622629 H          1 MOL1         0.0960
       7    H5      20.578446   17.187346   20.641293 H          1 MOL1         0.0960
       8    C3      19.290319   18.262856   22.012044 C.3        1 MOL1        -0.1409
       9    H6      18.384758   18.010710   21.443385 H          1 MOL1         0.0960
      10    H7      19.389882   17.475342   22.770723 H          1 MOL1         0.0960
      11    C4      19.069770   19.630115   22.713327 C.3        1 MOL1        -0.1409
      12    H8      18.185144   19.555418   23.359785 H          1 MOL1         0.0960
      13    H9      18.812615   20.386327   21.959831 H          1 MOL1         0.0960
      14    C5      20.273257   20.145244   23.547705 C.3        1 MOL1        -0.1409
      15    H10     21.114901   20.368897   22.878785 H          1 MOL1         0.0960
      16    H11     19.996565   21.104508   24.006500 H          1 MOL1         0.0960
      17    C6      20.752364   19.179132   24.659390 C.3        1 MOL1        -0.1450
      18    H12     21.593837   19.641439   25.192225 H          1 MOL1         0.0960
      19    H13     21.140588   18.255011   24.212673 H          1 MOL1         0.0960
      20    C7      19.641469   18.839642   25.670272 C.3        1 MOL1         0.0172
      21    H14     19.263942   19.759615   26.124624 H          1 MOL1         0.0934
      22    H15     18.813738   18.344411   25.155976 H          1 MOL1         0.0934
      23    N1      20.111204   17.925822   26.783574 N.4        1 MOL1        -0.5956
      24    H16     19.356695   17.712337   27.444971 H          1 MOL1         0.3624
      25    H17     20.873298   18.345532   27.325965 H          1 MOL1         0.3624
      26    H18     20.454971   17.029746   26.423186 H          1 MOL1         0.3624
@<TRIPOS>BOND
    1     1     2    1
    2     1     3    1
    3     1     4    1
    4     1     5    1
    5     5     6    1
    6     5     7    1
    7     5     8    1
    8     8     9    1
    9     8    10    1
   10     8    11    1
   11    11    12    1
   12    11    13    1
   13    11    14    1
   14    14    15    1
   15    14    16    1
   16    14    17    1
   17    17    18    1
   18    17    19    1
   19    17    20    1
   20    20    21    1
   21    20    22    1
   22    20    23    1
   23    23    24    1
   24    23    25    1
   25    23    26    1
@<TRIPOS>SUBSTRUCTURE
       1 MOL1            1 RESIDUE      1      MOL     
@<SCITEGIC>MOL_PROPERTY
VM2 Rank
SciTegic.value.IntegerValue
90

@<SCITEGIC>MOL_PROPERTY
Conf_Id
SciTegic.value.IntegerValue
682

@<SCITEGIC>MOL_PROPERTY
Probability
SciTegic.value.DoubleValue
0.16

@<SCITEGIC>MOL_PROPERTY
Sum Probability
SciTegic.value.DoubleValue
97.89

@<SCITEGIC>MOL_PROPERTY
Delta G
SciTegic.value.DoubleValue
2.277

@<SCITEGIC>MOL_PROPERTY
G
SciTegic.value.DoubleValue
50.538

@<SCITEGIC>MOL_PROPERTY
E
SciTegic.value.DoubleValue
17.206

@<SCITEGIC>MOL_PROPERTY
-TS
SciTegic.value.DoubleValue
33.332

@<SCITEGIC>MOL_PROPERTY
U+W
SciTegic.value.DoubleValue
-4.256

@<SCITEGIC>MOL_PROPERTY
U
SciTegic.value.DoubleValue
49.824

@<SCITEGIC>MOL_PROPERTY
W
SciTegic.value.DoubleValue
-54.080

@<SCITEGIC>MOL_PROPERTY
W(PB)
SciTegic.value.DoubleValue
-56.299

@<SCITEGIC>MOL_PROPERTY
W(SA)
SciTegic.value.DoubleValue
2.219

@<SCITEGIC>MOL_PROPERTY
Valence
SciTegic.value.DoubleValue
3.796

@<SCITEGIC>MOL_PROPERTY
Coulomb
SciTegic.value.DoubleValue
45.507

@<SCITEGIC>MOL_PROPERTY
VdW
SciTegic.value.DoubleValue
0.521

@<SCITEGIC>MOL_PROPERTY
VdW6
SciTegic.value.DoubleValue
-9.173

@<SCITEGIC>MOL_PROPERTY
VdW12
SciTegic.value.DoubleValue
9.694

@<SCITEGIC>MOL_PROPERTY
Bond
SciTegic.value.DoubleValue
0.280

@<SCITEGIC>MOL_PROPERTY
Angle
SciTegic.value.DoubleValue
1.536

@<SCITEGIC>MOL_PROPERTY
Pdih
SciTegic.value.DoubleValue
1.980

@<SCITEGIC>MOL_PROPERTY
Idih
SciTegic.value.DoubleValue
0.000

@<SCITEGIC>MOL_PROPERTY
Tether
SciTegic.value.DoubleValue
0.000

@<TRIPOS>MOLECULE
guest-s14_vm2.mol2 : vm2 ligand conformer 91
          26          25           1
SMALL
USER_CHARGES
 
@<TRIPOS>ATOM
       1    C1      20.953758   19.891116   20.447471 C.3        1 MOL1        -0.2400
       2    H1      20.551652   20.720273   21.042756 H          1 MOL1         0.0971
       3    H2      21.984153   20.150517   20.172143 H          1 MOL1         0.0971
       4    H3      20.367427   19.815911   19.522548 H          1 MOL1         0.0971
       5    C2      20.921758   18.561427   21.234256 C.3        1 MOL1        -0.1385
       6    H4      21.504018   18.664111   22.159601 H          1 MOL1         0.0960
       7    H5      21.430974   17.787994   20.642581 H          1 MOL1         0.0960
       8    C3      19.486718   18.072327   21.555837 C.3        1 MOL1        -0.1409
       9    H6      18.959364   17.878049   20.611814 H          1 MOL1         0.0960
      10    H7      19.546680   17.100712   22.063837 H          1 MOL1         0.0960
      11    C4      18.631266   19.048304   22.408001 C.3        1 MOL1        -0.1409
      12    H8      17.650996   18.587225   22.590994 H          1 MOL1         0.0960
      13    H9      18.424900   19.954769   21.823498 H          1 MOL1         0.0960
      14    C5      19.254516   19.458459   23.766962 C.3        1 MOL1        -0.1409
      15    H10     20.183194   20.016691   23.593272 H          1 MOL1         0.0960
      16    H11     18.568914   20.157495   24.265604 H          1 MOL1         0.0960
      17    C6      19.520797   18.257941   24.708731 C.3        1 MOL1        -0.1450
      18    H12     20.272824   17.588104   24.272876 H          1 MOL1         0.0960
      19    H13     18.599887   17.669816   24.816964 H          1 MOL1         0.0960
      20    C7      19.987655   18.697142   26.109709 C.3        1 MOL1         0.0172
      21    H14     19.244815   19.366251   26.552261 H          1 MOL1         0.0934
      22    H15     20.081296   17.818178   26.753278 H          1 MOL1         0.0934
      23    N1      21.324531   19.412285   26.110032 N.4        1 MOL1        -0.5956
      24    H16     21.611184   19.682054   27.057320 H          1 MOL1         0.3624
      25    H17     21.296102   20.269569   25.549591 H          1 MOL1         0.3624
      26    H18     22.071333   18.823412   25.727506 H          1 MOL1         0.3624
@<TRIPOS>BOND
    1     1     2    1
    2     1     3    1
    3     1     4    1
    4     1     5    1
    5     5     6    1
    6     5     7    1
    7     5     8    1
    8     8     9    1
    9     8    10    1
   10     8    11    1
   11    11    12    1
   12    11    13    1
   13    11    14    1
   14    14    15    1
   15    14    16    1
   16    14    17    1
   17    17    18    1
   18    17    19    1
   19    17    20    1
   20    20    21    1
   21    20    22    1
   22    20    23    1
   23    23    24    1
   24    23    25    1
   25    23    26    1
@<TRIPOS>SUBSTRUCTURE
       1 MOL1            1 RESIDUE      1      MOL     
@<SCITEGIC>MOL_PROPERTY
VM2 Rank
SciTegic.value.IntegerValue
91

@<SCITEGIC>MOL_PROPERTY
Conf_Id
SciTegic.value.IntegerValue
1312

@<SCITEGIC>MOL_PROPERTY
Probability
SciTegic.value.DoubleValue
0.16

@<SCITEGIC>MOL_PROPERTY
Sum Probability
SciTegic.value.DoubleValue
98.05

@<SCITEGIC>MOL_PROPERTY
Delta G
SciTegic.value.DoubleValue
2.285

@<SCITEGIC>MOL_PROPERTY
G
SciTegic.value.DoubleValue
50.546

@<SCITEGIC>MOL_PROPERTY
E
SciTegic.value.DoubleValue
17.315

@<SCITEGIC>MOL_PROPERTY
-TS
SciTegic.value.DoubleValue
33.231

@<SCITEGIC>MOL_PROPERTY
U+W
SciTegic.value.DoubleValue
-4.147

@<SCITEGIC>MOL_PROPERTY
U
SciTegic.value.DoubleValue
50.091

@<SCITEGIC>MOL_PROPERTY
W
SciTegic.value.DoubleValue
-54.237

@<SCITEGIC>MOL_PROPERTY
W(PB)
SciTegic.value.DoubleValue
-56.466

@<SCITEGIC>MOL_PROPERTY
W(SA)
SciTegic.value.DoubleValue
2.229

@<SCITEGIC>MOL_PROPERTY
Valence
SciTegic.value.DoubleValue
3.653

@<SCITEGIC>MOL_PROPERTY
Coulomb
SciTegic.value.DoubleValue
45.797

@<SCITEGIC>MOL_PROPERTY
VdW
SciTegic.value.DoubleValue
0.641

@<SCITEGIC>MOL_PROPERTY
VdW6
SciTegic.value.DoubleValue
-8.932

@<SCITEGIC>MOL_PROPERTY
VdW12
SciTegic.value.DoubleValue
9.573

@<SCITEGIC>MOL_PROPERTY
Bond
SciTegic.value.DoubleValue
0.273

@<SCITEGIC>MOL_PROPERTY
Angle
SciTegic.value.DoubleValue
1.380

@<SCITEGIC>MOL_PROPERTY
Pdih
SciTegic.value.DoubleValue
2.000

@<SCITEGIC>MOL_PROPERTY
Idih
SciTegic.value.DoubleValue
0.000

@<SCITEGIC>MOL_PROPERTY
Tether
SciTegic.value.DoubleValue
0.000

@<TRIPOS>MOLECULE
guest-s14_vm2.mol2 : vm2 ligand conformer 92
          26          25           1
SMALL
USER_CHARGES
 
@<TRIPOS>ATOM
       1    C1      18.883952   18.527630   20.378462 C.3        1 MOL1        -0.2400
       2    H1      18.253302   19.206172   20.966184 H          1 MOL1         0.0971
       3    H2      19.226819   19.064642   19.484602 H          1 MOL1         0.0971
       4    H3      18.253014   17.692609   20.047604 H          1 MOL1         0.0971
       5    C2      20.080727   18.007357   21.206214 C.3        1 MOL1        -0.1385
       6    H4      20.617847   17.252337   20.615431 H          1 MOL1         0.0960
       7    H5      19.714223   17.484994   22.099882 H          1 MOL1         0.0960
       8    C3      21.079734   19.121665   21.609051 C.3        1 MOL1        -0.1409
       9    H6      21.924495   18.667036   22.143267 H          1 MOL1         0.0960
      10    H7      21.509640   19.557944   20.696985 H          1 MOL1         0.0960
      11    C4      20.480845   20.266673   22.469747 C.3        1 MOL1        -0.1409
      12    H8      19.757123   20.832322   21.867937 H          1 MOL1         0.0960
      13    H9      21.281556   20.978770   22.712214 H          1 MOL1         0.0960
      14    C5      19.795641   19.814975   23.785005 C.3        1 MOL1        -0.1409
      15    H10     19.400484   20.705405   24.293267 H          1 MOL1         0.0960
      16    H11     18.925685   19.188266   23.551247 H          1 MOL1         0.0960
      17    C6      20.749140   19.067294   24.749827 C.3        1 MOL1        -0.1450
      18    H12     21.646463   19.677136   24.918903 H          1 MOL1         0.0960
      19    H13     21.088533   18.125563   24.300217 H          1 MOL1         0.0960
      20    C7      20.096795   18.769197   26.113342 C.3        1 MOL1         0.0172
      21    H14     20.836934   18.316288   26.778620 H          1 MOL1         0.0934
      22    H15     19.754066   19.701992   26.569194 H          1 MOL1         0.0934
      23    N1      18.914165   17.824208   26.029353 N.4        1 MOL1        -0.5956
      24    H16     18.509489   17.638500   26.953502 H          1 MOL1         0.3624
      25    H17     19.178865   16.917652   25.630735 H          1 MOL1         0.3624
      26    H18     18.164377   18.206144   25.444731 H          1 MOL1         0.3624
@<TRIPOS>BOND
    1     1     2    1
    2     1     3    1
    3     1     4    1
    4     1     5    1
    5     5     6    1
    6     5     7    1
    7     5     8    1
    8     8     9    1
    9     8    10    1
   10     8    11    1
   11    11    12    1
   12    11    13    1
   13    11    14    1
   14    14    15    1
   15    14    16    1
   16    14    17    1
   17    17    18    1
   18    17    19    1
   19    17    20    1
   20    20    21    1
   21    20    22    1
   22    20    23    1
   23    23    24    1
   24    23    25    1
   25    23    26    1
@<TRIPOS>SUBSTRUCTURE
       1 MOL1            1 RESIDUE      1      MOL     
@<SCITEGIC>MOL_PROPERTY
VM2 Rank
SciTegic.value.IntegerValue
92

@<SCITEGIC>MOL_PROPERTY
Conf_Id
SciTegic.value.IntegerValue
800

@<SCITEGIC>MOL_PROPERTY
Probability
SciTegic.value.DoubleValue
0.16

@<SCITEGIC>MOL_PROPERTY
Sum Probability
SciTegic.value.DoubleValue
98.21

@<SCITEGIC>MOL_PROPERTY
Delta G
SciTegic.value.DoubleValue
2.289

@<SCITEGIC>MOL_PROPERTY
G
SciTegic.value.DoubleValue
50.550

@<SCITEGIC>MOL_PROPERTY
E
SciTegic.value.DoubleValue
17.319

@<SCITEGIC>MOL_PROPERTY
-TS
SciTegic.value.DoubleValue
33.231

@<SCITEGIC>MOL_PROPERTY
U+W
SciTegic.value.DoubleValue
-4.143

@<SCITEGIC>MOL_PROPERTY
U
SciTegic.value.DoubleValue
50.091

@<SCITEGIC>MOL_PROPERTY
W
SciTegic.value.DoubleValue
-54.234

@<SCITEGIC>MOL_PROPERTY
W(PB)
SciTegic.value.DoubleValue
-56.461

@<SCITEGIC>MOL_PROPERTY
W(SA)
SciTegic.value.DoubleValue
2.228

@<SCITEGIC>MOL_PROPERTY
Valence
SciTegic.value.DoubleValue
3.653

@<SCITEGIC>MOL_PROPERTY
Coulomb
SciTegic.value.DoubleValue
45.797

@<SCITEGIC>MOL_PROPERTY
VdW
SciTegic.value.DoubleValue
0.641

@<SCITEGIC>MOL_PROPERTY
VdW6
SciTegic.value.DoubleValue
-8.932

@<SCITEGIC>MOL_PROPERTY
VdW12
SciTegic.value.DoubleValue
9.573

@<SCITEGIC>MOL_PROPERTY
Bond
SciTegic.value.DoubleValue
0.273

@<SCITEGIC>MOL_PROPERTY
Angle
SciTegic.value.DoubleValue
1.380

@<SCITEGIC>MOL_PROPERTY
Pdih
SciTegic.value.DoubleValue
2.000

@<SCITEGIC>MOL_PROPERTY
Idih
SciTegic.value.DoubleValue
0.000

@<SCITEGIC>MOL_PROPERTY
Tether
SciTegic.value.DoubleValue
0.000

@<TRIPOS>MOLECULE
guest-s14_vm2.mol2 : vm2 ligand conformer 93
          26          25           1
SMALL
USER_CHARGES
 
@<TRIPOS>ATOM
       1    C1      19.736271   18.756754   19.872175 C.3        1 MOL1        -0.2400
       2    H1      20.244895   19.577496   19.350057 H          1 MOL1         0.0971
       3    H2      19.567683   17.950275   19.146925 H          1 MOL1         0.0971
       4    H3      18.753412   19.115713   20.201874 H          1 MOL1         0.0971
       5    C2      20.581185   18.247503   21.061675 C.3        1 MOL1        -0.1385
       6    H4      21.505233   17.797992   20.672253 H          1 MOL1         0.0960
       7    H5      20.046068   17.438207   21.576035 H          1 MOL1         0.0960
       8    C3      20.960783   19.363481   22.067879 C.3        1 MOL1        -0.1409
       9    H6      21.609320   18.937685   22.844913 H          1 MOL1         0.0960
      10    H7      21.575113   20.112751   21.550012 H          1 MOL1         0.0960
      11    C4      19.759564   20.084613   22.736366 C.3        1 MOL1        -0.1409
      12    H8      19.201519   20.642550   21.972800 H          1 MOL1         0.0960
      13    H9      20.146136   20.847513   23.425274 H          1 MOL1         0.0960
      14    C5      18.774187   19.157560   23.497638 C.3        1 MOL1        -0.1409
      15    H10     17.980954   19.776497   23.939154 H          1 MOL1         0.0960
      16    H11     18.268808   18.493656   22.783732 H          1 MOL1         0.0960
      17    C6      19.420942   18.301937   24.614944 C.3        1 MOL1        -0.1450
      18    H12     20.137394   17.594058   24.179193 H          1 MOL1         0.0960
      19    H13     18.640542   17.695698   25.093660 H          1 MOL1         0.0960
      20    C7      20.122816   19.156789   25.686313 C.3        1 MOL1         0.0172
      21    H14     20.927130   19.736886   25.226468 H          1 MOL1         0.0934
      22    H15     19.405596   19.852933   26.129364 H          1 MOL1         0.0934
      23    N1      20.725251   18.330362   26.804010 N.4        1 MOL1        -0.5956
      24    H16     21.187380   18.918497   27.506036 H          1 MOL1         0.3624
      25    H17     21.429495   17.671821   26.455628 H          1 MOL1         0.3624
      26    H18     20.014807   17.779787   27.297232 H          1 MOL1         0.3624
@<TRIPOS>BOND
    1     1     2    1
    2     1     3    1
    3     1     4    1
    4     1     5    1
    5     5     6    1
    6     5     7    1
    7     5     8    1
    8     8     9    1
    9     8    10    1
   10     8    11    1
   11    11    12    1
   12    11    13    1
   13    11    14    1
   14    14    15    1
   15    14    16    1
   16    14    17    1
   17    17    18    1
   18    17    19    1
   19    17    20    1
   20    20    21    1
   21    20    22    1
   22    20    23    1
   23    23    24    1
   24    23    25    1
   25    23    26    1
@<TRIPOS>SUBSTRUCTURE
       1 MOL1            1 RESIDUE      1      MOL     
@<SCITEGIC>MOL_PROPERTY
VM2 Rank
SciTegic.value.IntegerValue
93

@<SCITEGIC>MOL_PROPERTY
Conf_Id
SciTegic.value.IntegerValue
121

@<SCITEGIC>MOL_PROPERTY
Probability
SciTegic.value.DoubleValue
0.15

@<SCITEGIC>MOL_PROPERTY
Sum Probability
SciTegic.value.DoubleValue
98.36

@<SCITEGIC>MOL_PROPERTY
Delta G
SciTegic.value.DoubleValue
2.314

@<SCITEGIC>MOL_PROPERTY
G
SciTegic.value.DoubleValue
50.575

@<SCITEGIC>MOL_PROPERTY
E
SciTegic.value.DoubleValue
17.243

@<SCITEGIC>MOL_PROPERTY
-TS
SciTegic.value.DoubleValue
33.332

@<SCITEGIC>MOL_PROPERTY
U+W
SciTegic.value.DoubleValue
-4.219

@<SCITEGIC>MOL_PROPERTY
U
SciTegic.value.DoubleValue
49.824

@<SCITEGIC>MOL_PROPERTY
W
SciTegic.value.DoubleValue
-54.043

@<SCITEGIC>MOL_PROPERTY
W(PB)
SciTegic.value.DoubleValue
-56.275

@<SCITEGIC>MOL_PROPERTY
W(SA)
SciTegic.value.DoubleValue
2.232

@<SCITEGIC>MOL_PROPERTY
Valence
SciTegic.value.DoubleValue
3.796

@<SCITEGIC>MOL_PROPERTY
Coulomb
SciTegic.value.DoubleValue
45.507

@<SCITEGIC>MOL_PROPERTY
VdW
SciTegic.value.DoubleValue
0.521

@<SCITEGIC>MOL_PROPERTY
VdW6
SciTegic.value.DoubleValue
-9.173

@<SCITEGIC>MOL_PROPERTY
VdW12
SciTegic.value.DoubleValue
9.694

@<SCITEGIC>MOL_PROPERTY
Bond
SciTegic.value.DoubleValue
0.280

@<SCITEGIC>MOL_PROPERTY
Angle
SciTegic.value.DoubleValue
1.536

@<SCITEGIC>MOL_PROPERTY
Pdih
SciTegic.value.DoubleValue
1.980

@<SCITEGIC>MOL_PROPERTY
Idih
SciTegic.value.DoubleValue
0.000

@<SCITEGIC>MOL_PROPERTY
Tether
SciTegic.value.DoubleValue
0.000

@<TRIPOS>MOLECULE
guest-s14_vm2.mol2 : vm2 ligand conformer 94
          26          25           1
SMALL
USER_CHARGES
 
@<TRIPOS>ATOM
       1    C1      18.460831   18.761770   20.923570 C.3        1 MOL1        -0.2400
       2    H1      18.223045   19.752255   20.514450 H          1 MOL1         0.0971
       3    H2      17.846466   18.022897   20.393007 H          1 MOL1         0.0971
       4    H3      18.160995   18.744522   21.978272 H          1 MOL1         0.0971
       5    C2      19.962577   18.438044   20.755180 C.3        1 MOL1        -0.1385
       6    H4      20.187487   18.354353   19.682762 H          1 MOL1         0.0960
       7    H5      20.180117   17.451056   21.184657 H          1 MOL1         0.0960
       8    C3      20.897197   19.509773   21.372043 C.3        1 MOL1        -0.1409
       9    H6      21.940120   19.226545   21.173996 H          1 MOL1         0.0960
      10    H7      20.739958   20.462070   20.847129 H          1 MOL1         0.0960
      11    C4      20.719036   19.745478   22.894012 C.3        1 MOL1        -0.1409
      12    H8      19.711191   20.132295   23.090986 H          1 MOL1         0.0960
      13    H9      21.413178   20.538641   23.204049 H          1 MOL1         0.0960
      14    C5      20.986342   18.480950   23.748596 C.3        1 MOL1        -0.1409
      15    H10     20.250061   17.702255   23.512806 H          1 MOL1         0.0960
      16    H11     21.967888   18.066551   23.480471 H          1 MOL1         0.0960
      17    C6      20.968934   18.764327   25.271503 C.3        1 MOL1        -0.1450
      18    H12     21.765469   19.479589   25.515966 H          1 MOL1         0.0960
      19    H13     21.209014   17.841363   25.815819 H          1 MOL1         0.0960
      20    C7      19.627266   19.321539   25.788892 C.3        1 MOL1         0.0172
      21    H14     19.708173   19.526694   26.859806 H          1 MOL1         0.0934
      22    H15     19.396003   20.260890   25.280182 H          1 MOL1         0.0934
      23    N1      18.458817   18.377119   25.587204 N.4        1 MOL1        -0.5956
      24    H16     18.603206   17.485772   26.072685 H          1 MOL1         0.3624
      25    H17     18.313781   18.163282   24.595896 H          1 MOL1         0.3624
      26    H18     17.582495   18.773894   25.943446 H          1 MOL1         0.3624
@<TRIPOS>BOND
    1     1     2    1
    2     1     3    1
    3     1     4    1
    4     1     5    1
    5     5     6    1
    6     5     7    1
    7     5     8    1
    8     8     9    1
    9     8    10    1
   10     8    11    1
   11    11    12    1
   12    11    13    1
   13    11    14    1
   14    14    15    1
   15    14    16    1
   16    14    17    1
   17    17    18    1
   18    17    19    1
   19    17    20    1
   20    20    21    1
   21    20    22    1
   22    20    23    1
   23    23    24    1
   24    23    25    1
   25    23    26    1
@<TRIPOS>SUBSTRUCTURE
       1 MOL1            1 RESIDUE      1      MOL     
@<SCITEGIC>MOL_PROPERTY
VM2 Rank
SciTegic.value.IntegerValue
94

@<SCITEGIC>MOL_PROPERTY
Conf_Id
SciTegic.value.IntegerValue
862

@<SCITEGIC>MOL_PROPERTY
Probability
SciTegic.value.DoubleValue
0.10

@<SCITEGIC>MOL_PROPERTY
Sum Probability
SciTegic.value.DoubleValue
98.46

@<SCITEGIC>MOL_PROPERTY
Delta G
SciTegic.value.DoubleValue
2.556

@<SCITEGIC>MOL_PROPERTY
G
SciTegic.value.DoubleValue
50.817

@<SCITEGIC>MOL_PROPERTY
E
SciTegic.value.DoubleValue
17.764

@<SCITEGIC>MOL_PROPERTY
-TS
SciTegic.value.DoubleValue
33.053

@<SCITEGIC>MOL_PROPERTY
U+W
SciTegic.value.DoubleValue
-3.698

@<SCITEGIC>MOL_PROPERTY
U
SciTegic.value.DoubleValue
50.414

@<SCITEGIC>MOL_PROPERTY
W
SciTegic.value.DoubleValue
-54.112

@<SCITEGIC>MOL_PROPERTY
W(PB)
SciTegic.value.DoubleValue
-56.311

@<SCITEGIC>MOL_PROPERTY
W(SA)
SciTegic.value.DoubleValue
2.199

@<SCITEGIC>MOL_PROPERTY
Valence
SciTegic.value.DoubleValue
3.472

@<SCITEGIC>MOL_PROPERTY
Coulomb
SciTegic.value.DoubleValue
46.374

@<SCITEGIC>MOL_PROPERTY
VdW
SciTegic.value.DoubleValue
0.568

@<SCITEGIC>MOL_PROPERTY
VdW6
SciTegic.value.DoubleValue
-8.861

@<SCITEGIC>MOL_PROPERTY
VdW12
SciTegic.value.DoubleValue
9.429

@<SCITEGIC>MOL_PROPERTY
Bond
SciTegic.value.DoubleValue
0.255

@<SCITEGIC>MOL_PROPERTY
Angle
SciTegic.value.DoubleValue
1.219

@<SCITEGIC>MOL_PROPERTY
Pdih
SciTegic.value.DoubleValue
1.997

@<SCITEGIC>MOL_PROPERTY
Idih
SciTegic.value.DoubleValue
0.000

@<SCITEGIC>MOL_PROPERTY
Tether
SciTegic.value.DoubleValue
0.000

@<TRIPOS>MOLECULE
guest-s14_vm2.mol2 : vm2 ligand conformer 95
          26          25           1
SMALL
USER_CHARGES
 
@<TRIPOS>ATOM
       1    C1      20.877772   20.356733   21.004372 C.3        1 MOL1        -0.2400
       2    H1      20.962244   20.592897   22.071933 H          1 MOL1         0.0971
       3    H2      21.822200   20.646492   20.525861 H          1 MOL1         0.0971
       4    H3      20.080113   20.977857   20.576672 H          1 MOL1         0.0971
       5    C2      20.593915   18.854819   20.776172 C.3        1 MOL1        -0.1385
       6    H4      21.395397   18.253051   21.224974 H          1 MOL1         0.0960
       7    H5      20.632321   18.648295   19.697495 H          1 MOL1         0.0960
       8    C3      19.214114   18.399231   21.315829 C.3        1 MOL1        -0.1409
       9    H6      18.425262   18.934807   20.769936 H          1 MOL1         0.0960
      10    H7      19.074465   17.335666   21.078223 H          1 MOL1         0.0960
      11    C4      18.996812   18.608894   22.836522 C.3        1 MOL1        -0.1409
      12    H8      17.981557   18.273789   23.089560 H          1 MOL1         0.0960
      13    H9      19.027402   19.681065   23.068238 H          1 MOL1         0.0960
      14    C5      20.014204   17.839324   23.715990 C.3        1 MOL1        -0.1409
      15    H10     20.022683   16.782675   23.415206 H          1 MOL1         0.0960
      16    H11     21.029219   18.216665   23.538697 H          1 MOL1         0.0960
      17    C6      19.689929   17.919866   25.228672 C.3        1 MOL1        -0.1450
      18    H12     20.418656   17.319402   25.789190 H          1 MOL1         0.0960
      19    H13     18.709236   17.461814   25.413764 H          1 MOL1         0.0960
      20    C7      19.679618   19.355919   25.790717 C.3        1 MOL1         0.0172
      21    H14     18.930760   19.953642   25.264802 H          1 MOL1         0.0934
      22    H15     19.409629   19.329281   26.849907 H          1 MOL1         0.0934
      23    N1      21.014635   20.064215   25.672727 N.4        1 MOL1        -0.5956
      24    H16     21.314045   20.143886   24.696275 H          1 MOL1         0.3624
      25    H17     21.754498   19.565931   26.178052 H          1 MOL1         0.3624
      26    H18     20.976881   21.014544   26.057082 H          1 MOL1         0.3624
@<TRIPOS>BOND
    1     1     2    1
    2     1     3    1
    3     1     4    1
    4     1     5    1
    5     5     6    1
    6     5     7    1
    7     5     8    1
    8     8     9    1
    9     8    10    1
   10     8    11    1
   11    11    12    1
   12    11    13    1
   13    11    14    1
   14    14    15    1
   15    14    16    1
   16    14    17    1
   17    17    18    1
   18    17    19    1
   19    17    20    1
   20    20    21    1
   21    20    22    1
   22    20    23    1
   23    23    24    1
   24    23    25    1
   25    23    26    1
@<TRIPOS>SUBSTRUCTURE
       1 MOL1            1 RESIDUE      1      MOL     
@<SCITEGIC>MOL_PROPERTY
VM2 Rank
SciTegic.value.IntegerValue
95

@<SCITEGIC>MOL_PROPERTY
Conf_Id
SciTegic.value.IntegerValue
1108

@<SCITEGIC>MOL_PROPERTY
Probability
SciTegic.value.DoubleValue
0.09

@<SCITEGIC>MOL_PROPERTY
Sum Probability
SciTegic.value.DoubleValue
98.56

@<SCITEGIC>MOL_PROPERTY
Delta G
SciTegic.value.DoubleValue
2.618

@<SCITEGIC>MOL_PROPERTY
G
SciTegic.value.DoubleValue
50.879

@<SCITEGIC>MOL_PROPERTY
E
SciTegic.value.DoubleValue
17.826

@<SCITEGIC>MOL_PROPERTY
-TS
SciTegic.value.DoubleValue
33.053

@<SCITEGIC>MOL_PROPERTY
U+W
SciTegic.value.DoubleValue
-3.636

@<SCITEGIC>MOL_PROPERTY
U
SciTegic.value.DoubleValue
50.414

@<SCITEGIC>MOL_PROPERTY
W
SciTegic.value.DoubleValue
-54.049

@<SCITEGIC>MOL_PROPERTY
W(PB)
SciTegic.value.DoubleValue
-56.263

@<SCITEGIC>MOL_PROPERTY
W(SA)
SciTegic.value.DoubleValue
2.213

@<SCITEGIC>MOL_PROPERTY
Valence
SciTegic.value.DoubleValue
3.472

@<SCITEGIC>MOL_PROPERTY
Coulomb
SciTegic.value.DoubleValue
46.374

@<SCITEGIC>MOL_PROPERTY
VdW
SciTegic.value.DoubleValue
0.568

@<SCITEGIC>MOL_PROPERTY
VdW6
SciTegic.value.DoubleValue
-8.861

@<SCITEGIC>MOL_PROPERTY
VdW12
SciTegic.value.DoubleValue
9.429

@<SCITEGIC>MOL_PROPERTY
Bond
SciTegic.value.DoubleValue
0.255

@<SCITEGIC>MOL_PROPERTY
Angle
SciTegic.value.DoubleValue
1.219

@<SCITEGIC>MOL_PROPERTY
Pdih
SciTegic.value.DoubleValue
1.997

@<SCITEGIC>MOL_PROPERTY
Idih
SciTegic.value.DoubleValue
0.000

@<SCITEGIC>MOL_PROPERTY
Tether
SciTegic.value.DoubleValue
0.000

@<TRIPOS>MOLECULE
guest-s14_vm2.mol2 : vm2 ligand conformer 96
          26          25           1
SMALL
USER_CHARGES
 
@<TRIPOS>ATOM
       1    C1      20.591259   19.203598   19.955978 C.3        1 MOL1        -0.2400
       2    H1      21.402280   19.718990   20.485296 H          1 MOL1         0.0971
       3    H2      21.045598   18.610197   19.152072 H          1 MOL1         0.0971
       4    H3      19.947240   19.961542   19.491570 H          1 MOL1         0.0971
       5    C2      19.781401   18.295090   20.908270 C.3        1 MOL1        -0.1385
       6    H4      20.448759   17.556175   21.371393 H          1 MOL1         0.0960
       7    H5      19.057690   17.718004   20.316001 H          1 MOL1         0.0960
       8    C3      19.011291   19.080608   22.000012 C.3        1 MOL1        -0.1409
       9    H6      18.282948   19.742632   21.511940 H          1 MOL1         0.0960
      10    H7      18.415628   18.374646   22.593662 H          1 MOL1         0.0960
      11    C4      19.897174   19.932926   22.947939 C.3        1 MOL1        -0.1409
      12    H8      19.247743   20.441327   23.672862 H          1 MOL1         0.0960
      13    H9      20.372752   20.738189   22.372550 H          1 MOL1         0.0960
      14    C5      20.997283   19.143986   23.707586 C.3        1 MOL1        -0.1409
      15    H10     21.731091   18.755731   22.988912 H          1 MOL1         0.0960
      16    H11     21.555956   19.842726   24.344421 H          1 MOL1         0.0960
      17    C6      20.472095   17.970199   24.575031 C.3        1 MOL1        -0.1450
      18    H12     21.316814   17.498303   25.094031 H          1 MOL1         0.0960
      19    H13     20.046509   17.193836   23.926606 H          1 MOL1         0.0960
      20    C7      19.410949   18.386649   25.613116 C.3        1 MOL1         0.0172
      21    H14     18.550962   18.829378   25.103957 H          1 MOL1         0.0934
      22    H15     19.066702   17.502282   26.156092 H          1 MOL1         0.0934
      23    N1      19.919547   19.385945   26.633066 N.4        1 MOL1        -0.5956
      24    H16     19.193926   19.641587   27.311426 H          1 MOL1         0.3624
      25    H17     20.234689   20.252711   26.186719 H          1 MOL1         0.3624
      26    H18     20.711812   19.014268   27.166885 H          1 MOL1         0.3624
@<TRIPOS>BOND
    1     1     2    1
    2     1     3    1
    3     1     4    1
    4     1     5    1
    5     5     6    1
    6     5     7    1
    7     5     8    1
    8     8     9    1
    9     8    10    1
   10     8    11    1
   11    11    12    1
   12    11    13    1
   13    11    14    1
   14    14    15    1
   15    14    16    1
   16    14    17    1
   17    17    18    1
   18    17    19    1
   19    17    20    1
   20    20    21    1
   21    20    22    1
   22    20    23    1
   23    23    24    1
   24    23    25    1
   25    23    26    1
@<TRIPOS>SUBSTRUCTURE
       1 MOL1            1 RESIDUE      1      MOL     
@<SCITEGIC>MOL_PROPERTY
VM2 Rank
SciTegic.value.IntegerValue
96

@<SCITEGIC>MOL_PROPERTY
Conf_Id
SciTegic.value.IntegerValue
825

@<SCITEGIC>MOL_PROPERTY
Probability
SciTegic.value.DoubleValue
0.08

@<SCITEGIC>MOL_PROPERTY
Sum Probability
SciTegic.value.DoubleValue
98.64

@<SCITEGIC>MOL_PROPERTY
Delta G
SciTegic.value.DoubleValue
2.670

@<SCITEGIC>MOL_PROPERTY
G
SciTegic.value.DoubleValue
50.931

@<SCITEGIC>MOL_PROPERTY
E
SciTegic.value.DoubleValue
17.404

@<SCITEGIC>MOL_PROPERTY
-TS
SciTegic.value.DoubleValue
33.527

@<SCITEGIC>MOL_PROPERTY
U+W
SciTegic.value.DoubleValue
-4.058

@<SCITEGIC>MOL_PROPERTY
U
SciTegic.value.DoubleValue
50.051

@<SCITEGIC>MOL_PROPERTY
W
SciTegic.value.DoubleValue
-54.109

@<SCITEGIC>MOL_PROPERTY
W(PB)
SciTegic.value.DoubleValue
-56.310

@<SCITEGIC>MOL_PROPERTY
W(SA)
SciTegic.value.DoubleValue
2.201

@<SCITEGIC>MOL_PROPERTY
Valence
SciTegic.value.DoubleValue
3.896

@<SCITEGIC>MOL_PROPERTY
Coulomb
SciTegic.value.DoubleValue
45.624

@<SCITEGIC>MOL_PROPERTY
VdW
SciTegic.value.DoubleValue
0.532

@<SCITEGIC>MOL_PROPERTY
VdW6
SciTegic.value.DoubleValue
-9.866

@<SCITEGIC>MOL_PROPERTY
VdW12
SciTegic.value.DoubleValue
10.398

@<SCITEGIC>MOL_PROPERTY
Bond
SciTegic.value.DoubleValue
0.306

@<SCITEGIC>MOL_PROPERTY
Angle
SciTegic.value.DoubleValue
1.609

@<SCITEGIC>MOL_PROPERTY
Pdih
SciTegic.value.DoubleValue
1.981

@<SCITEGIC>MOL_PROPERTY
Idih
SciTegic.value.DoubleValue
0.000

@<SCITEGIC>MOL_PROPERTY
Tether
SciTegic.value.DoubleValue
0.000

@<TRIPOS>MOLECULE
guest-s14_vm2.mol2 : vm2 ligand conformer 97
          26          25           1
SMALL
USER_CHARGES
 
@<TRIPOS>ATOM
       1    C1      20.543223   19.016078   19.213547 C.3        1 MOL1        -0.2400
       2    H1      19.554546   18.708964   18.848252 H          1 MOL1         0.0971
       3    H2      20.624182   20.105631   19.106017 H          1 MOL1         0.0971
       4    H3      21.299938   18.556281   18.564693 H          1 MOL1         0.0971
       5    C2      20.750304   18.586591   20.681450 C.3        1 MOL1        -0.1385
       6    H4      21.759077   18.876898   21.006988 H          1 MOL1         0.0960
       7    H5      20.697377   17.491046   20.751515 H          1 MOL1         0.0960
       8    C3      19.697041   19.220641   21.616909 C.3        1 MOL1        -0.1409
       9    H6      19.752644   20.315575   21.542488 H          1 MOL1         0.0960
      10    H7      18.690868   18.930231   21.284161 H          1 MOL1         0.0960
      11    C4      19.900066   18.791786   23.087719 C.3        1 MOL1        -0.1409
      12    H8      20.909425   19.083723   23.402831 H          1 MOL1         0.0960
      13    H9      19.835513   17.697331   23.161251 H          1 MOL1         0.0960
      14    C5      18.851501   19.439153   24.023101 C.3        1 MOL1        -0.1409
      15    H10     18.992533   20.528868   24.033102 H          1 MOL1         0.0960
      16    H11     17.848954   19.264276   23.608669 H          1 MOL1         0.0960
      17    C6      18.871257   18.903217   25.477545 C.3        1 MOL1        -0.1450
      18    H12     18.669519   17.823859   25.490259 H          1 MOL1         0.0960
      19    H13     18.039005   19.371477   26.019721 H          1 MOL1         0.0960
      20    C7      20.168521   19.207721   26.255187 C.3        1 MOL1         0.0172
      21    H14     20.514660   20.217564   26.019170 H          1 MOL1         0.0934
      22    H15     19.959218   19.163133   27.327431 H          1 MOL1         0.0934
      23    N1      21.299087   18.233813   25.985541 N.4        1 MOL1        -0.5956
      24    H16     21.043508   17.275264   26.244314 H          1 MOL1         0.3624
      25    H17     22.141780   18.472490   26.519706 H          1 MOL1         0.3624
      26    H18     21.561709   18.220338   24.996166 H          1 MOL1         0.3624
@<TRIPOS>BOND
    1     1     2    1
    2     1     3    1
    3     1     4    1
    4     1     5    1
    5     5     6    1
    6     5     7    1
    7     5     8    1
    8     8     9    1
    9     8    10    1
   10     8    11    1
   11    11    12    1
   12    11    13    1
   13    11    14    1
   14    14    15    1
   15    14    16    1
   16    14    17    1
   17    17    18    1
   18    17    19    1
   19    17    20    1
   20    20    21    1
   21    20    22    1
   22    20    23    1
   23    23    24    1
   24    23    25    1
   25    23    26    1
@<TRIPOS>SUBSTRUCTURE
       1 MOL1            1 RESIDUE      1      MOL     
@<SCITEGIC>MOL_PROPERTY
VM2 Rank
SciTegic.value.IntegerValue
97

@<SCITEGIC>MOL_PROPERTY
Conf_Id
SciTegic.value.IntegerValue
253

@<SCITEGIC>MOL_PROPERTY
Probability
SciTegic.value.DoubleValue
0.07

@<SCITEGIC>MOL_PROPERTY
Sum Probability
SciTegic.value.DoubleValue
98.71

@<SCITEGIC>MOL_PROPERTY
Delta G
SciTegic.value.DoubleValue
2.756

@<SCITEGIC>MOL_PROPERTY
G
SciTegic.value.DoubleValue
51.017

@<SCITEGIC>MOL_PROPERTY
E
SciTegic.value.DoubleValue
18.518

@<SCITEGIC>MOL_PROPERTY
-TS
SciTegic.value.DoubleValue
32.499

@<SCITEGIC>MOL_PROPERTY
U+W
SciTegic.value.DoubleValue
-2.944

@<SCITEGIC>MOL_PROPERTY
U
SciTegic.value.DoubleValue
50.881

@<SCITEGIC>MOL_PROPERTY
W
SciTegic.value.DoubleValue
-53.825

@<SCITEGIC>MOL_PROPERTY
W(PB)
SciTegic.value.DoubleValue
-56.140

@<SCITEGIC>MOL_PROPERTY
W(SA)
SciTegic.value.DoubleValue
2.315

@<SCITEGIC>MOL_PROPERTY
Valence
SciTegic.value.DoubleValue
3.754

@<SCITEGIC>MOL_PROPERTY
Coulomb
SciTegic.value.DoubleValue
46.574

@<SCITEGIC>MOL_PROPERTY
VdW
SciTegic.value.DoubleValue
0.552

@<SCITEGIC>MOL_PROPERTY
VdW6
SciTegic.value.DoubleValue
-7.276

@<SCITEGIC>MOL_PROPERTY
VdW12
SciTegic.value.DoubleValue
7.828

@<SCITEGIC>MOL_PROPERTY
Bond
SciTegic.value.DoubleValue
0.187

@<SCITEGIC>MOL_PROPERTY
Angle
SciTegic.value.DoubleValue
0.957

@<SCITEGIC>MOL_PROPERTY
Pdih
SciTegic.value.DoubleValue
2.610

@<SCITEGIC>MOL_PROPERTY
Idih
SciTegic.value.DoubleValue
0.000

@<SCITEGIC>MOL_PROPERTY
Tether
SciTegic.value.DoubleValue
0.000

@<TRIPOS>MOLECULE
guest-s14_vm2.mol2 : vm2 ligand conformer 98
          26          25           1
SMALL
USER_CHARGES
 
@<TRIPOS>ATOM
       1    C1      19.907040   18.596398   19.192324 C.3        1 MOL1        -0.2400
       2    H1      20.061926   17.739873   18.523432 H          1 MOL1         0.0971
       3    H2      18.879813   18.955658   19.047493 H          1 MOL1         0.0971
       4    H3      20.595041   19.394103   18.883186 H          1 MOL1         0.0971
       5    C2      20.151230   18.191671   20.661556 C.3        1 MOL1        -0.1385
       6    H4      19.472608   17.370108   20.930596 H          1 MOL1         0.0960
       7    H5      21.174682   17.805442   20.767854 H          1 MOL1         0.0960
       8    C3      19.939607   19.380533   21.625031 C.3        1 MOL1        -0.1409
       9    H6      20.617529   20.199951   21.348589 H          1 MOL1         0.0960
      10    H7      18.915814   19.764093   21.514386 H          1 MOL1         0.0960
      11    C4      20.184895   18.979746   23.097311 C.3        1 MOL1        -0.1409
      12    H8      21.211862   18.604769   23.207487 H          1 MOL1         0.0960
      13    H9      19.505254   18.158441   23.355927 H          1 MOL1         0.0960
      14    C5      19.958979   20.169497   24.060098 C.3        1 MOL1        -0.1409
      15    H10     20.532920   21.033871   23.698314 H          1 MOL1         0.0960
      16    H11     18.902350   20.469665   24.030026 H          1 MOL1         0.0960
      17    C6      20.375625   19.895324   25.527836 C.3        1 MOL1        -0.1450
      18    H12     20.247108   20.827683   26.093568 H          1 MOL1         0.0960
      19    H13     21.445620   19.654641   25.583133 H          1 MOL1         0.0960
      20    C7      19.550221   18.799957   26.234391 C.3        1 MOL1         0.0172
      21    H14     19.623298   18.941674   27.316093 H          1 MOL1         0.0934
      22    H15     18.497792   18.887402   25.951473 H          1 MOL1         0.0934
      23    N1      20.013401   17.385874   25.942453 N.4        1 MOL1        -0.5956
      24    H16     20.982086   17.234767   26.242317 H          1 MOL1         0.3624
      25    H17     19.968894   17.169771   24.942785 H          1 MOL1         0.3624
      26    H18     19.438312   16.689535   26.429088 H          1 MOL1         0.3624
@<TRIPOS>BOND
    1     1     2    1
    2     1     3    1
    3     1     4    1
    4     1     5    1
    5     5     6    1
    6     5     7    1
    7     5     8    1
    8     8     9    1
    9     8    10    1
   10     8    11    1
   11    11    12    1
   12    11    13    1
   13    11    14    1
   14    14    15    1
   15    14    16    1
   16    14    17    1
   17    17    18    1
   18    17    19    1
   19    17    20    1
   20    20    21    1
   21    20    22    1
   22    20    23    1
   23    23    24    1
   24    23    25    1
   25    23    26    1
@<TRIPOS>SUBSTRUCTURE
       1 MOL1            1 RESIDUE      1      MOL     
@<SCITEGIC>MOL_PROPERTY
VM2 Rank
SciTegic.value.IntegerValue
98

@<SCITEGIC>MOL_PROPERTY
Conf_Id
SciTegic.value.IntegerValue
1082

@<SCITEGIC>MOL_PROPERTY
Probability
SciTegic.value.DoubleValue
0.07

@<SCITEGIC>MOL_PROPERTY
Sum Probability
SciTegic.value.DoubleValue
98.78

@<SCITEGIC>MOL_PROPERTY
Delta G
SciTegic.value.DoubleValue
2.775

@<SCITEGIC>MOL_PROPERTY
G
SciTegic.value.DoubleValue
51.037

@<SCITEGIC>MOL_PROPERTY
E
SciTegic.value.DoubleValue
18.536

@<SCITEGIC>MOL_PROPERTY
-TS
SciTegic.value.DoubleValue
32.500

@<SCITEGIC>MOL_PROPERTY
U+W
SciTegic.value.DoubleValue
-2.925

@<SCITEGIC>MOL_PROPERTY
U
SciTegic.value.DoubleValue
50.881

@<SCITEGIC>MOL_PROPERTY
W
SciTegic.value.DoubleValue
-53.807

@<SCITEGIC>MOL_PROPERTY
W(PB)
SciTegic.value.DoubleValue
-56.131

@<SCITEGIC>MOL_PROPERTY
W(SA)
SciTegic.value.DoubleValue
2.324

@<SCITEGIC>MOL_PROPERTY
Valence
SciTegic.value.DoubleValue
3.754

@<SCITEGIC>MOL_PROPERTY
Coulomb
SciTegic.value.DoubleValue
46.574

@<SCITEGIC>MOL_PROPERTY
VdW
SciTegic.value.DoubleValue
0.553

@<SCITEGIC>MOL_PROPERTY
VdW6
SciTegic.value.DoubleValue
-7.276

@<SCITEGIC>MOL_PROPERTY
VdW12
SciTegic.value.DoubleValue
7.829

@<SCITEGIC>MOL_PROPERTY
Bond
SciTegic.value.DoubleValue
0.187

@<SCITEGIC>MOL_PROPERTY
Angle
SciTegic.value.DoubleValue
0.957

@<SCITEGIC>MOL_PROPERTY
Pdih
SciTegic.value.DoubleValue
2.610

@<SCITEGIC>MOL_PROPERTY
Idih
SciTegic.value.DoubleValue
0.000

@<SCITEGIC>MOL_PROPERTY
Tether
SciTegic.value.DoubleValue
0.000

@<TRIPOS>MOLECULE
guest-s14_vm2.mol2 : vm2 ligand conformer 99
          26          25           1
SMALL
USER_CHARGES
 
@<TRIPOS>ATOM
       1    C1      20.584887   20.311241   19.892329 C.3        1 MOL1        -0.2400
       2    H1      21.032994   21.102360   20.507602 H          1 MOL1         0.0971
       3    H2      21.177498   20.223486   18.972465 H          1 MOL1         0.0971
       4    H3      19.572094   20.628597   19.611665 H          1 MOL1         0.0971
       5    C2      20.554877   18.967690   20.651404 C.3        1 MOL1        -0.1385
       6    H4      21.582988   18.660421   20.889088 H          1 MOL1         0.0960
       7    H5      20.134408   18.189826   19.998677 H          1 MOL1         0.0960
       8    C3      19.725812   19.063217   21.951344 C.3        1 MOL1        -0.1409
       9    H6      20.145456   19.852503   22.585240 H          1 MOL1         0.0960
      10    H7      18.699697   19.369866   21.705770 H          1 MOL1         0.0960
      11    C4      19.691771   17.713430   22.709874 C.3        1 MOL1        -0.1409
      12    H8      20.712378   17.377137   22.939071 H          1 MOL1         0.0960
      13    H9      19.267069   16.955736   22.036752 H          1 MOL1         0.0960
      14    C5      18.838419   17.743929   24.004814 C.3        1 MOL1        -0.1409
      15    H10     17.976404   18.413275   23.877280 H          1 MOL1         0.0960
      16    H11     18.415614   16.741305   24.158069 H          1 MOL1         0.0960
      17    C6      19.621929   18.119777   25.287772 C.3        1 MOL1        -0.1450
      18    H12     20.434638   17.398480   25.446287 H          1 MOL1         0.0960
      19    H13     18.948175   18.022316   26.149467 H          1 MOL1         0.0960
      20    C7      20.200716   19.545403   25.268658 C.3        1 MOL1         0.0172
      21    H14     20.951236   19.626470   24.478665 H          1 MOL1         0.0934
      22    H15     19.402793   20.264992   25.066508 H          1 MOL1         0.0934
      23    N1      20.862591   19.934313   26.574805 N.4        1 MOL1        -0.5956
      24    H16     21.244161   20.885914   26.540346 H          1 MOL1         0.3624
      25    H17     21.640402   19.309114   26.809998 H          1 MOL1         0.3624
      26    H18     20.204200   19.905322   27.360207 H          1 MOL1         0.3624
@<TRIPOS>BOND
    1     1     2    1
    2     1     3    1
    3     1     4    1
    4     1     5    1
    5     5     6    1
    6     5     7    1
    7     5     8    1
    8     8     9    1
    9     8    10    1
   10     8    11    1
   11    11    12    1
   12    11    13    1
   13    11    14    1
   14    14    15    1
   15    14    16    1
   16    14    17    1
   17    17    18    1
   18    17    19    1
   19    17    20    1
   20    20    21    1
   21    20    22    1
   22    20    23    1
   23    23    24    1
   24    23    25    1
   25    23    26    1
@<TRIPOS>SUBSTRUCTURE
       1 MOL1            1 RESIDUE      1      MOL     
@<SCITEGIC>MOL_PROPERTY
VM2 Rank
SciTegic.value.IntegerValue
99

@<SCITEGIC>MOL_PROPERTY
Conf_Id
SciTegic.value.IntegerValue
251

@<SCITEGIC>MOL_PROPERTY
Probability
SciTegic.value.DoubleValue
0.07

@<SCITEGIC>MOL_PROPERTY
Sum Probability
SciTegic.value.DoubleValue
98.85

@<SCITEGIC>MOL_PROPERTY
Delta G
SciTegic.value.DoubleValue
2.782

@<SCITEGIC>MOL_PROPERTY
G
SciTegic.value.DoubleValue
51.043

@<SCITEGIC>MOL_PROPERTY
E
SciTegic.value.DoubleValue
18.556

@<SCITEGIC>MOL_PROPERTY
-TS
SciTegic.value.DoubleValue
32.487

@<SCITEGIC>MOL_PROPERTY
U+W
SciTegic.value.DoubleValue
-2.906

@<SCITEGIC>MOL_PROPERTY
U
SciTegic.value.DoubleValue
50.868

@<SCITEGIC>MOL_PROPERTY
W
SciTegic.value.DoubleValue
-53.774

@<SCITEGIC>MOL_PROPERTY
W(PB)
SciTegic.value.DoubleValue
-56.095

@<SCITEGIC>MOL_PROPERTY
W(SA)
SciTegic.value.DoubleValue
2.321

@<SCITEGIC>MOL_PROPERTY
Valence
SciTegic.value.DoubleValue
4.695

@<SCITEGIC>MOL_PROPERTY
Coulomb
SciTegic.value.DoubleValue
45.536

@<SCITEGIC>MOL_PROPERTY
VdW
SciTegic.value.DoubleValue
0.636

@<SCITEGIC>MOL_PROPERTY
VdW6
SciTegic.value.DoubleValue
-7.287

@<SCITEGIC>MOL_PROPERTY
VdW12
SciTegic.value.DoubleValue
7.923

@<SCITEGIC>MOL_PROPERTY
Bond
SciTegic.value.DoubleValue
0.211

@<SCITEGIC>MOL_PROPERTY
Angle
SciTegic.value.DoubleValue
1.115

@<SCITEGIC>MOL_PROPERTY
Pdih
SciTegic.value.DoubleValue
3.370

@<SCITEGIC>MOL_PROPERTY
Idih
SciTegic.value.DoubleValue
0.000

@<SCITEGIC>MOL_PROPERTY
Tether
SciTegic.value.DoubleValue
0.000

@<TRIPOS>MOLECULE
guest-s14_vm2.mol2 : vm2 ligand conformer 100
          26          25           1
SMALL
USER_CHARGES
 
@<TRIPOS>ATOM
       1    C1      18.669367   19.047330   19.828194 C.3        1 MOL1        -0.2400
       2    H1      18.560266   18.496470   18.884959 H          1 MOL1         0.0971
       3    H2      17.738103   18.928656   20.397311 H          1 MOL1         0.0971
       4    H3      18.788446   20.111286   19.585180 H          1 MOL1         0.0971
       5    C2      19.879914   18.522299   20.628910 C.3        1 MOL1        -0.1385
       6    H4      20.789893   18.621971   20.020698 H          1 MOL1         0.0960
       7    H5      19.747569   17.449552   20.827953 H          1 MOL1         0.0960
       8    C3      20.056983   19.281774   21.962391 C.3        1 MOL1        -0.1409
       9    H6      20.189393   20.352698   21.755410 H          1 MOL1         0.0960
      10    H7      19.137756   19.187853   22.551544 H          1 MOL1         0.0960
      11    C4      21.274966   18.758065   22.762835 C.3        1 MOL1        -0.1409
      12    H8      22.168984   18.870331   22.133794 H          1 MOL1         0.0960
      13    H9      21.172741   17.681010   22.954579 H          1 MOL1         0.0960
      14    C5      21.521526   19.514320   24.094490 C.3        1 MOL1        -0.1409
      15    H10     22.601337   19.503126   24.297931 H          1 MOL1         0.0960
      16    H11     21.250742   20.573758   23.986675 H          1 MOL1         0.0960
      17    C6      20.809205   18.903253   25.327505 C.3        1 MOL1        -0.1450
      18    H12     21.122871   19.457490   26.222154 H          1 MOL1         0.0960
      19    H13     21.145726   17.867744   25.470228 H          1 MOL1         0.0960
      20    C7      19.273376   18.933456   25.237648 C.3        1 MOL1         0.0172
      21    H14     18.934653   19.956047   25.050761 H          1 MOL1         0.0934
      22    H15     18.941342   18.300076   24.411497 H          1 MOL1         0.0934
      23    N1      18.595663   18.438504   26.499027 N.4        1 MOL1        -0.5956
      24    H16     18.854025   17.470546   26.716937 H          1 MOL1         0.3624
      25    H17     17.573381   18.463704   26.417598 H          1 MOL1         0.3624
      26    H18     18.843933   19.007894   27.314707 H          1 MOL1         0.3624
@<TRIPOS>BOND
    1     1     2    1
    2     1     3    1
    3     1     4    1
    4     1     5    1
    5     5     6    1
    6     5     7    1
    7     5     8    1
    8     8     9    1
    9     8    10    1
   10     8    11    1
   11    11    12    1
   12    11    13    1
   13    11    14    1
   14    14    15    1
   15    14    16    1
   16    14    17    1
   17    17    18    1
   18    17    19    1
   19    17    20    1
   20    20    21    1
   21    20    22    1
   22    20    23    1
   23    23    24    1
   24    23    25    1
   25    23    26    1
@<TRIPOS>SUBSTRUCTURE
       1 MOL1            1 RESIDUE      1      MOL     
@<SCITEGIC>MOL_PROPERTY
VM2 Rank
SciTegic.value.IntegerValue
100

@<SCITEGIC>MOL_PROPERTY
Conf_Id
SciTegic.value.IntegerValue
548

@<SCITEGIC>MOL_PROPERTY
Probability
SciTegic.value.DoubleValue
0.06

@<SCITEGIC>MOL_PROPERTY
Sum Probability
SciTegic.value.DoubleValue
98.92

@<SCITEGIC>MOL_PROPERTY
Delta G
SciTegic.value.DoubleValue
2.859

@<SCITEGIC>MOL_PROPERTY
G
SciTegic.value.DoubleValue
51.120

@<SCITEGIC>MOL_PROPERTY
E
SciTegic.value.DoubleValue
18.633

@<SCITEGIC>MOL_PROPERTY
-TS
SciTegic.value.DoubleValue
32.487

@<SCITEGIC>MOL_PROPERTY
U+W
SciTegic.value.DoubleValue
-2.829

@<SCITEGIC>MOL_PROPERTY
U
SciTegic.value.DoubleValue
50.868

@<SCITEGIC>MOL_PROPERTY
W
SciTegic.value.DoubleValue
-53.697

@<SCITEGIC>MOL_PROPERTY
W(PB)
SciTegic.value.DoubleValue
-56.030

@<SCITEGIC>MOL_PROPERTY
W(SA)
SciTegic.value.DoubleValue
2.333

@<SCITEGIC>MOL_PROPERTY
Valence
SciTegic.value.DoubleValue
4.696

@<SCITEGIC>MOL_PROPERTY
Coulomb
SciTegic.value.DoubleValue
45.536

@<SCITEGIC>MOL_PROPERTY
VdW
SciTegic.value.DoubleValue
0.636

@<SCITEGIC>MOL_PROPERTY
VdW6
SciTegic.value.DoubleValue
-7.287

@<SCITEGIC>MOL_PROPERTY
VdW12
SciTegic.value.DoubleValue
7.923

@<SCITEGIC>MOL_PROPERTY
Bond
SciTegic.value.DoubleValue
0.211

@<SCITEGIC>MOL_PROPERTY
Angle
SciTegic.value.DoubleValue
1.115

@<SCITEGIC>MOL_PROPERTY
Pdih
SciTegic.value.DoubleValue
3.370

@<SCITEGIC>MOL_PROPERTY
Idih
SciTegic.value.DoubleValue
0.000

@<SCITEGIC>MOL_PROPERTY
Tether
SciTegic.value.DoubleValue
0.000

@<TRIPOS>MOLECULE
guest-s14_vm2.mol2 : vm2 ligand conformer 101
          26          25           1
SMALL
USER_CHARGES
 
@<TRIPOS>ATOM
       1    C1      20.564549   20.447324   20.073201 C.3        1 MOL1        -0.2400
       2    H1      21.404596   20.900921   20.615232 H          1 MOL1         0.0971
       3    H2      20.820597   20.433209   19.005831 H          1 MOL1         0.0971
       4    H3      19.686394   21.093741   20.200565 H          1 MOL1         0.0971
       5    C2      20.280668   19.018934   20.584371 C.3        1 MOL1        -0.1385
       6    H4      21.164352   18.388062   20.413915 H          1 MOL1         0.0960
       7    H5      19.459928   18.579769   20.000063 H          1 MOL1         0.0960
       8    C3      19.916211   19.011010   22.085506 C.3        1 MOL1        -0.1409
       9    H6      20.743031   19.458971   22.651251 H          1 MOL1         0.0960
      10    H7      19.029133   19.638024   22.250107 H          1 MOL1         0.0960
      11    C4      19.645883   17.579062   22.603677 C.3        1 MOL1        -0.1409
      12    H8      20.571216   16.989482   22.544845 H          1 MOL1         0.0960
      13    H9      18.927851   17.086805   21.933217 H          1 MOL1         0.0960
      14    C5      19.081856   17.511178   24.046716 C.3        1 MOL1        -0.1409
      15    H10     18.102029   18.006563   24.092888 H          1 MOL1         0.0960
      16    H11     18.891351   16.454013   24.278198 H          1 MOL1         0.0960
      17    C6      20.017459   18.083101   25.141550 C.3        1 MOL1        -0.1450
      18    H12     21.064153   17.853582   24.901498 H          1 MOL1         0.0960
      19    H13     19.797874   17.573941   26.089471 H          1 MOL1         0.0960
      20    C7      19.836856   19.598050   25.360091 C.3        1 MOL1         0.0172
      21    H14     20.052564   20.142654   24.439090 H          1 MOL1         0.0934
      22    H15     18.801746   19.805634   25.644392 H          1 MOL1         0.0934
      23    N1      20.737518   20.150339   26.445888 N.4        1 MOL1        -0.5956
      24    H16     20.599499   21.157999   26.579730 H          1 MOL1         0.3624
      25    H17     21.729455   20.011079   26.227330 H          1 MOL1         0.3624
      26    H18     20.562489   19.702660   27.351500 H          1 MOL1         0.3624
@<TRIPOS>BOND
    1     1     2    1
    2     1     3    1
    3     1     4    1
    4     1     5    1
    5     5     6    1
    6     5     7    1
    7     5     8    1
    8     8     9    1
    9     8    10    1
   10     8    11    1
   11    11    12    1
   12    11    13    1
   13    11    14    1
   14    14    15    1
   15    14    16    1
   16    14    17    1
   17    17    18    1
   18    17    19    1
   19    17    20    1
   20    20    21    1
   21    20    22    1
   22    20    23    1
   23    23    24    1
   24    23    25    1
   25    23    26    1
@<TRIPOS>SUBSTRUCTURE
       1 MOL1            1 RESIDUE      1      MOL     
@<SCITEGIC>MOL_PROPERTY
VM2 Rank
SciTegic.value.IntegerValue
101

@<SCITEGIC>MOL_PROPERTY
Conf_Id
SciTegic.value.IntegerValue
1115

@<SCITEGIC>MOL_PROPERTY
Probability
SciTegic.value.DoubleValue
0.06

@<SCITEGIC>MOL_PROPERTY
Sum Probability
SciTegic.value.DoubleValue
98.98

@<SCITEGIC>MOL_PROPERTY
Delta G
SciTegic.value.DoubleValue
2.861

@<SCITEGIC>MOL_PROPERTY
G
SciTegic.value.DoubleValue
51.122

@<SCITEGIC>MOL_PROPERTY
E
SciTegic.value.DoubleValue
18.434

@<SCITEGIC>MOL_PROPERTY
-TS
SciTegic.value.DoubleValue
32.689

@<SCITEGIC>MOL_PROPERTY
U+W
SciTegic.value.DoubleValue
-3.028

@<SCITEGIC>MOL_PROPERTY
U
SciTegic.value.DoubleValue
50.862

@<SCITEGIC>MOL_PROPERTY
W
SciTegic.value.DoubleValue
-53.891

@<SCITEGIC>MOL_PROPERTY
W(PB)
SciTegic.value.DoubleValue
-56.211

@<SCITEGIC>MOL_PROPERTY
W(SA)
SciTegic.value.DoubleValue
2.321

@<SCITEGIC>MOL_PROPERTY
Valence
SciTegic.value.DoubleValue
4.548

@<SCITEGIC>MOL_PROPERTY
Coulomb
SciTegic.value.DoubleValue
45.757

@<SCITEGIC>MOL_PROPERTY
VdW
SciTegic.value.DoubleValue
0.557

@<SCITEGIC>MOL_PROPERTY
VdW6
SciTegic.value.DoubleValue
-7.490

@<SCITEGIC>MOL_PROPERTY
VdW12
SciTegic.value.DoubleValue
8.047

@<SCITEGIC>MOL_PROPERTY
Bond
SciTegic.value.DoubleValue
0.198

@<SCITEGIC>MOL_PROPERTY
Angle
SciTegic.value.DoubleValue
1.148

@<SCITEGIC>MOL_PROPERTY
Pdih
SciTegic.value.DoubleValue
3.202

@<SCITEGIC>MOL_PROPERTY
Idih
SciTegic.value.DoubleValue
0.000

@<SCITEGIC>MOL_PROPERTY
Tether
SciTegic.value.DoubleValue
0.000

@<TRIPOS>MOLECULE
guest-s14_vm2.mol2 : vm2 ligand conformer 102
          26          25           1
SMALL
USER_CHARGES
 
@<TRIPOS>ATOM
       1    C1      18.543756   19.113767   20.005743 C.3        1 MOL1        -0.2400
       2    H1      18.505955   18.905769   18.928550 H          1 MOL1         0.0971
       3    H2      17.772399   18.503917   20.493921 H          1 MOL1         0.0971
       4    H3      18.288309   20.171129   20.153946 H          1 MOL1         0.0971
       5    C2      19.943610   18.796522   20.573147 C.3        1 MOL1        -0.1385
       6    H4      20.696102   19.395604   20.041404 H          1 MOL1         0.0960
       7    H5      20.184603   17.741519   20.381198 H          1 MOL1         0.0960
       8    C3      20.024003   19.082132   22.089149 C.3        1 MOL1        -0.1409
       9    H6      19.788134   20.138907   22.275537 H          1 MOL1         0.0960
      10    H7      19.261919   18.481478   22.601802 H          1 MOL1         0.0960
      11    C4      21.421491   18.750839   22.663022 C.3        1 MOL1        -0.1409
      12    H8      22.186486   19.237354   22.042143 H          1 MOL1         0.0960
      13    H9      21.603050   17.670409   22.579271 H          1 MOL1         0.0960
      14    C5      21.637905   19.197898   24.132172 C.3        1 MOL1        -0.1409
      15    H10     22.673066   18.949529   24.404624 H          1 MOL1         0.0960
      16    H11     21.564933   20.291706   24.208710 H          1 MOL1         0.0960
      17    C6      20.694561   18.529887   25.164146 C.3        1 MOL1        -0.1450
      18    H12     21.204331   18.501900   26.136444 H          1 MOL1         0.0960
      19    H13     20.506015   17.485323   24.882702 H          1 MOL1         0.0960
      20    C7      19.363485   19.285689   25.344288 C.3        1 MOL1         0.0172
      21    H14     19.565580   20.309576   25.670143 H          1 MOL1         0.0934
      22    H15     18.821490   19.330464   24.397926 H          1 MOL1         0.0934
      23    N1      18.452190   18.642266   26.369334 N.4        1 MOL1        -0.5956
      24    H16     18.201234   17.682903   26.109059 H          1 MOL1         0.3624
      25    H17     17.574371   19.161760   26.478433 H          1 MOL1         0.3624
      26    H18     18.889877   18.598815   27.295470 H          1 MOL1         0.3624
@<TRIPOS>BOND
    1     1     2    1
    2     1     3    1
    3     1     4    1
    4     1     5    1
    5     5     6    1
    6     5     7    1
    7     5     8    1
    8     8     9    1
    9     8    10    1
   10     8    11    1
   11    11    12    1
   12    11    13    1
   13    11    14    1
   14    14    15    1
   15    14    16    1
   16    14    17    1
   17    17    18    1
   18    17    19    1
   19    17    20    1
   20    20    21    1
   21    20    22    1
   22    20    23    1
   23    23    24    1
   24    23    25    1
   25    23    26    1
@<TRIPOS>SUBSTRUCTURE
       1 MOL1            1 RESIDUE      1      MOL     
@<SCITEGIC>MOL_PROPERTY
VM2 Rank
SciTegic.value.IntegerValue
102

@<SCITEGIC>MOL_PROPERTY
Conf_Id
SciTegic.value.IntegerValue
1070

@<SCITEGIC>MOL_PROPERTY
Probability
SciTegic.value.DoubleValue
0.06

@<SCITEGIC>MOL_PROPERTY
Sum Probability
SciTegic.value.DoubleValue
99.04

@<SCITEGIC>MOL_PROPERTY
Delta G
SciTegic.value.DoubleValue
2.871

@<SCITEGIC>MOL_PROPERTY
G
SciTegic.value.DoubleValue
51.132

@<SCITEGIC>MOL_PROPERTY
E
SciTegic.value.DoubleValue
18.443

@<SCITEGIC>MOL_PROPERTY
-TS
SciTegic.value.DoubleValue
32.689

@<SCITEGIC>MOL_PROPERTY
U+W
SciTegic.value.DoubleValue
-3.019

@<SCITEGIC>MOL_PROPERTY
U
SciTegic.value.DoubleValue
50.863

@<SCITEGIC>MOL_PROPERTY
W
SciTegic.value.DoubleValue
-53.881

@<SCITEGIC>MOL_PROPERTY
W(PB)
SciTegic.value.DoubleValue
-56.199

@<SCITEGIC>MOL_PROPERTY
W(SA)
SciTegic.value.DoubleValue
2.318

@<SCITEGIC>MOL_PROPERTY
Valence
SciTegic.value.DoubleValue
4.548

@<SCITEGIC>MOL_PROPERTY
Coulomb
SciTegic.value.DoubleValue
45.757

@<SCITEGIC>MOL_PROPERTY
VdW
SciTegic.value.DoubleValue
0.558

@<SCITEGIC>MOL_PROPERTY
VdW6
SciTegic.value.DoubleValue
-7.490

@<SCITEGIC>MOL_PROPERTY
VdW12
SciTegic.value.DoubleValue
8.047

@<SCITEGIC>MOL_PROPERTY
Bond
SciTegic.value.DoubleValue
0.198

@<SCITEGIC>MOL_PROPERTY
Angle
SciTegic.value.DoubleValue
1.148

@<SCITEGIC>MOL_PROPERTY
Pdih
SciTegic.value.DoubleValue
3.203

@<SCITEGIC>MOL_PROPERTY
Idih
SciTegic.value.DoubleValue
0.000

@<SCITEGIC>MOL_PROPERTY
Tether
SciTegic.value.DoubleValue
0.000

@<TRIPOS>MOLECULE
guest-s14_vm2.mol2 : vm2 ligand conformer 103
          26          25           1
SMALL
USER_CHARGES
 
@<TRIPOS>ATOM
       1    C1      19.840810   20.459200   20.451256 C.3        1 MOL1        -0.2400
       2    H1      18.871575   20.414851   19.937777 H          1 MOL1         0.0971
       3    H2      19.663369   20.801023   21.476784 H          1 MOL1         0.0971
       4    H3      20.449428   21.221297   19.947578 H          1 MOL1         0.0971
       5    C2      20.550616   19.085764   20.408976 C.3        1 MOL1        -0.1385
       6    H4      21.549023   19.157333   20.862455 H          1 MOL1         0.0960
       7    H5      20.715994   18.823124   19.354658 H          1 MOL1         0.0960
       8    C3      19.734652   17.949847   21.078287 C.3        1 MOL1        -0.1409
       9    H6      18.658367   18.152733   20.991051 H          1 MOL1         0.0960
      10    H7      19.907732   17.025041   20.510673 H          1 MOL1         0.0960
      11    C4      20.105459   17.664776   22.556697 C.3        1 MOL1        -0.1409
      12    H8      21.159229   17.359255   22.615898 H          1 MOL1         0.0960
      13    H9      19.517491   16.801279   22.897279 H          1 MOL1         0.0960
      14    C5      19.859491   18.851437   23.517073 C.3        1 MOL1        -0.1409
      15    H10     20.538204   19.676728   23.265320 H          1 MOL1         0.0960
      16    H11     18.833321   19.223034   23.389350 H          1 MOL1         0.0960
      17    C6      20.083455   18.452733   24.992409 C.3        1 MOL1        -0.1450
      18    H12     21.107930   18.079198   25.122928 H          1 MOL1         0.0960
      19    H13     19.404282   17.632906   25.261975 H          1 MOL1         0.0960
      20    C7      19.848132   19.643119   25.938769 C.3        1 MOL1         0.0172
      21    H14     20.533656   20.456255   25.685130 H          1 MOL1         0.0934
      22    H15     18.823889   20.008024   25.823685 H          1 MOL1         0.0934
      23    N1      20.058385   19.292125   27.397534 N.4        1 MOL1        -0.5956
      24    H16     21.013649   18.966610   27.578484 H          1 MOL1         0.3624
      25    H17     19.422763   18.549704   27.707430 H          1 MOL1         0.3624
      26    H18     19.896702   20.098639   28.010582 H          1 MOL1         0.3624
@<TRIPOS>BOND
    1     1     2    1
    2     1     3    1
    3     1     4    1
    4     1     5    1
    5     5     6    1
    6     5     7    1
    7     5     8    1
    8     8     9    1
    9     8    10    1
   10     8    11    1
   11    11    12    1
   12    11    13    1
   13    11    14    1
   14    14    15    1
   15    14    16    1
   16    14    17    1
   17    17    18    1
   18    17    19    1
   19    17    20    1
   20    20    21    1
   21    20    22    1
   22    20    23    1
   23    23    24    1
   24    23    25    1
   25    23    26    1
@<TRIPOS>SUBSTRUCTURE
       1 MOL1            1 RESIDUE      1      MOL     
@<SCITEGIC>MOL_PROPERTY
VM2 Rank
SciTegic.value.IntegerValue
103

@<SCITEGIC>MOL_PROPERTY
Conf_Id
SciTegic.value.IntegerValue
727

@<SCITEGIC>MOL_PROPERTY
Probability
SciTegic.value.DoubleValue
0.03

@<SCITEGIC>MOL_PROPERTY
Sum Probability
SciTegic.value.DoubleValue
99.07

@<SCITEGIC>MOL_PROPERTY
Delta G
SciTegic.value.DoubleValue
3.307

@<SCITEGIC>MOL_PROPERTY
G
SciTegic.value.DoubleValue
51.568

@<SCITEGIC>MOL_PROPERTY
E
SciTegic.value.DoubleValue
18.875

@<SCITEGIC>MOL_PROPERTY
-TS
SciTegic.value.DoubleValue
32.693

@<SCITEGIC>MOL_PROPERTY
U+W
SciTegic.value.DoubleValue
-2.586

@<SCITEGIC>MOL_PROPERTY
U
SciTegic.value.DoubleValue
50.680

@<SCITEGIC>MOL_PROPERTY
W
SciTegic.value.DoubleValue
-53.266

@<SCITEGIC>MOL_PROPERTY
W(PB)
SciTegic.value.DoubleValue
-55.566

@<SCITEGIC>MOL_PROPERTY
W(SA)
SciTegic.value.DoubleValue
2.299

@<SCITEGIC>MOL_PROPERTY
Valence
SciTegic.value.DoubleValue
5.154

@<SCITEGIC>MOL_PROPERTY
Coulomb
SciTegic.value.DoubleValue
44.813

@<SCITEGIC>MOL_PROPERTY
VdW
SciTegic.value.DoubleValue
0.713

@<SCITEGIC>MOL_PROPERTY
VdW6
SciTegic.value.DoubleValue
-7.314

@<SCITEGIC>MOL_PROPERTY
VdW12
SciTegic.value.DoubleValue
8.027

@<SCITEGIC>MOL_PROPERTY
Bond
SciTegic.value.DoubleValue
0.213

@<SCITEGIC>MOL_PROPERTY
Angle
SciTegic.value.DoubleValue
1.193

@<SCITEGIC>MOL_PROPERTY
Pdih
SciTegic.value.DoubleValue
3.747

@<SCITEGIC>MOL_PROPERTY
Idih
SciTegic.value.DoubleValue
0.000

@<SCITEGIC>MOL_PROPERTY
Tether
SciTegic.value.DoubleValue
0.000

@<TRIPOS>MOLECULE
guest-s14_vm2.mol2 : vm2 ligand conformer 104
          26          25           1
SMALL
USER_CHARGES
 
@<TRIPOS>ATOM
       1    C1      18.799526   19.772397   20.416441 C.3        1 MOL1        -0.2400
       2    H1      18.507518   20.038634   21.438148 H          1 MOL1         0.0971
       3    H2      19.244658   20.660955   19.950212 H          1 MOL1         0.0971
       4    H3      17.884000   19.529197   19.861855 H          1 MOL1         0.0971
       5    C2      19.784383   18.580384   20.383331 C.3        1 MOL1        -0.1385
       6    H4      20.009797   18.357363   19.331017 H          1 MOL1         0.0960
       7    H5      19.305570   17.677583   20.787399 H          1 MOL1         0.0960
       8    C3      21.116927   18.861603   21.124494 C.3        1 MOL1        -0.1409
       9    H6      21.924889   18.355586   20.578096 H          1 MOL1         0.0960
      10    H7      21.357142   19.932862   21.081310 H          1 MOL1         0.0960
      11    C4      21.164367   18.363204   22.592081 C.3        1 MOL1        -0.1409
      12    H8      22.172471   18.552533   22.986048 H          1 MOL1         0.0960
      13    H9      21.028625   17.273031   22.611479 H          1 MOL1         0.0960
      14    C5      20.126160   19.027257   23.525972 C.3        1 MOL1        -0.1409
      15    H10     20.193468   20.120219   23.434731 H          1 MOL1         0.0960
      16    H11     19.113398   18.736669   23.217727 H          1 MOL1         0.0960
      17    C6      20.335913   18.619247   25.000856 C.3        1 MOL1        -0.1450
      18    H12     21.343005   18.911893   25.326714 H          1 MOL1         0.0960
      19    H13     20.270948   17.526994   25.095057 H          1 MOL1         0.0960
      20    C7      19.290769   19.275433   25.920145 C.3        1 MOL1         0.0172
      21    H14     19.362790   20.363598   25.841522 H          1 MOL1         0.0934
      22    H15     18.286591   18.973745   25.610177 H          1 MOL1         0.0934
      23    N1      19.462955   18.899474   27.377680 N.4        1 MOL1        -0.5956
      24    H16     19.378679   17.888190   27.524079 H          1 MOL1         0.3624
      25    H17     18.757082   19.347050   27.972537 H          1 MOL1         0.3624
      26    H18     20.380004   19.181392   27.739317 H          1 MOL1         0.3624
@<TRIPOS>BOND
    1     1     2    1
    2     1     3    1
    3     1     4    1
    4     1     5    1
    5     5     6    1
    6     5     7    1
    7     5     8    1
    8     8     9    1
    9     8    10    1
   10     8    11    1
   11    11    12    1
   12    11    13    1
   13    11    14    1
   14    14    15    1
   15    14    16    1
   16    14    17    1
   17    17    18    1
   18    17    19    1
   19    17    20    1
   20    20    21    1
   21    20    22    1
   22    20    23    1
   23    23    24    1
   24    23    25    1
   25    23    26    1
@<TRIPOS>SUBSTRUCTURE
       1 MOL1            1 RESIDUE      1      MOL     
@<SCITEGIC>MOL_PROPERTY
VM2 Rank
SciTegic.value.IntegerValue
104

@<SCITEGIC>MOL_PROPERTY
Conf_Id
SciTegic.value.IntegerValue
558

@<SCITEGIC>MOL_PROPERTY
Probability
SciTegic.value.DoubleValue
0.03

@<SCITEGIC>MOL_PROPERTY
Sum Probability
SciTegic.value.DoubleValue
99.10

@<SCITEGIC>MOL_PROPERTY
Delta G
SciTegic.value.DoubleValue
3.307

@<SCITEGIC>MOL_PROPERTY
G
SciTegic.value.DoubleValue
51.569

@<SCITEGIC>MOL_PROPERTY
E
SciTegic.value.DoubleValue
18.875

@<SCITEGIC>MOL_PROPERTY
-TS
SciTegic.value.DoubleValue
32.693

@<SCITEGIC>MOL_PROPERTY
U+W
SciTegic.value.DoubleValue
-2.586

@<SCITEGIC>MOL_PROPERTY
U
SciTegic.value.DoubleValue
50.680

@<SCITEGIC>MOL_PROPERTY
W
SciTegic.value.DoubleValue
-53.266

@<SCITEGIC>MOL_PROPERTY
W(PB)
SciTegic.value.DoubleValue
-55.569

@<SCITEGIC>MOL_PROPERTY
W(SA)
SciTegic.value.DoubleValue
2.303

@<SCITEGIC>MOL_PROPERTY
Valence
SciTegic.value.DoubleValue
5.154

@<SCITEGIC>MOL_PROPERTY
Coulomb
SciTegic.value.DoubleValue
44.813

@<SCITEGIC>MOL_PROPERTY
VdW
SciTegic.value.DoubleValue
0.712

@<SCITEGIC>MOL_PROPERTY
VdW6
SciTegic.value.DoubleValue
-7.314

@<SCITEGIC>MOL_PROPERTY
VdW12
SciTegic.value.DoubleValue
8.027

@<SCITEGIC>MOL_PROPERTY
Bond
SciTegic.value.DoubleValue
0.213

@<SCITEGIC>MOL_PROPERTY
Angle
SciTegic.value.DoubleValue
1.193

@<SCITEGIC>MOL_PROPERTY
Pdih
SciTegic.value.DoubleValue
3.748

@<SCITEGIC>MOL_PROPERTY
Idih
SciTegic.value.DoubleValue
0.000

@<SCITEGIC>MOL_PROPERTY
Tether
SciTegic.value.DoubleValue
0.000

@<TRIPOS>MOLECULE
guest-s14_vm2.mol2 : vm2 ligand conformer 105
          26          25           1
SMALL
USER_CHARGES
 
@<TRIPOS>ATOM
       1    C1      18.597963   19.020788   20.578721 C.3        1 MOL1        -0.2400
       2    H1      18.417896   20.064773   20.865989 H          1 MOL1         0.0971
       3    H2      17.912608   18.775414   19.757166 H          1 MOL1         0.0971
       4    H3      18.337818   18.374247   21.425805 H          1 MOL1         0.0971
       5    C2      20.063288   18.807956   20.140393 C.3        1 MOL1        -0.1385
       6    H4      20.228265   19.340353   19.193239 H          1 MOL1         0.0960
       7    H5      20.227529   17.743266   19.923179 H          1 MOL1         0.0960
       8    C3      21.115482   19.296851   21.168359 C.3        1 MOL1        -0.1409
       9    H6      22.108260   19.139513   20.724465 H          1 MOL1         0.0960
      10    H7      21.025398   20.382118   21.313873 H          1 MOL1         0.0960
      11    C4      21.076486   18.564737   22.535184 C.3        1 MOL1        -0.1409
      12    H8      22.106074   18.468685   22.906887 H          1 MOL1         0.0960
      13    H9      20.704881   17.539349   22.402341 H          1 MOL1         0.0960
      14    C5      20.243759   19.307394   23.608834 C.3        1 MOL1        -0.1409
      15    H10     20.665583   20.309486   23.768236 H          1 MOL1         0.0960
      16    H11     19.213965   19.454069   23.261925 H          1 MOL1         0.0960
      17    C6      20.224213   18.541741   24.950068 C.3        1 MOL1        -0.1450
      18    H12     21.251550   18.404385   25.313088 H          1 MOL1         0.0960
      19    H13     19.799336   17.540563   24.797759 H          1 MOL1         0.0960
      20    C7      19.401528   19.290018   26.013685 C.3        1 MOL1         0.0172
      21    H14     19.830440   20.281862   26.180275 H          1 MOL1         0.0934
      22    H15     18.373178   19.414189   25.663622 H          1 MOL1         0.0934
      23    N1      19.358279   18.569515   27.345755 N.4        1 MOL1        -0.5956
      24    H16     18.939145   17.637494   27.262778 H          1 MOL1         0.3624
      25    H17     18.805607   19.084661   28.039739 H          1 MOL1         0.3624
      26    H18     20.295077   18.444873   27.743390 H          1 MOL1         0.3624
@<TRIPOS>BOND
    1     1     2    1
    2     1     3    1
    3     1     4    1
    4     1     5    1
    5     5     6    1
    6     5     7    1
    7     5     8    1
    8     8     9    1
    9     8    10    1
   10     8    11    1
   11    11    12    1
   12    11    13    1
   13    11    14    1
   14    14    15    1
   15    14    16    1
   16    14    17    1
   17    17    18    1
   18    17    19    1
   19    17    20    1
   20    20    21    1
   21    20    22    1
   22    20    23    1
   23    23    24    1
   24    23    25    1
   25    23    26    1
@<TRIPOS>SUBSTRUCTURE
       1 MOL1            1 RESIDUE      1      MOL     
@<SCITEGIC>MOL_PROPERTY
VM2 Rank
SciTegic.value.IntegerValue
105

@<SCITEGIC>MOL_PROPERTY
Conf_Id
SciTegic.value.IntegerValue
758

@<SCITEGIC>MOL_PROPERTY
Probability
SciTegic.value.DoubleValue
0.03

@<SCITEGIC>MOL_PROPERTY
Sum Probability
SciTegic.value.DoubleValue
99.12

@<SCITEGIC>MOL_PROPERTY
Delta G
SciTegic.value.DoubleValue
3.309

@<SCITEGIC>MOL_PROPERTY
G
SciTegic.value.DoubleValue
51.571

@<SCITEGIC>MOL_PROPERTY
E
SciTegic.value.DoubleValue
18.867

@<SCITEGIC>MOL_PROPERTY
-TS
SciTegic.value.DoubleValue
32.703

@<SCITEGIC>MOL_PROPERTY
U+W
SciTegic.value.DoubleValue
-2.594

@<SCITEGIC>MOL_PROPERTY
U
SciTegic.value.DoubleValue
50.662

@<SCITEGIC>MOL_PROPERTY
W
SciTegic.value.DoubleValue
-53.256

@<SCITEGIC>MOL_PROPERTY
W(PB)
SciTegic.value.DoubleValue
-55.568

@<SCITEGIC>MOL_PROPERTY
W(SA)
SciTegic.value.DoubleValue
2.312

@<SCITEGIC>MOL_PROPERTY
Valence
SciTegic.value.DoubleValue
5.128

@<SCITEGIC>MOL_PROPERTY
Coulomb
SciTegic.value.DoubleValue
44.842

@<SCITEGIC>MOL_PROPERTY
VdW
SciTegic.value.DoubleValue
0.692

@<SCITEGIC>MOL_PROPERTY
VdW6
SciTegic.value.DoubleValue
-7.327

@<SCITEGIC>MOL_PROPERTY
VdW12
SciTegic.value.DoubleValue
8.019

@<SCITEGIC>MOL_PROPERTY
Bond
SciTegic.value.DoubleValue
0.214

@<SCITEGIC>MOL_PROPERTY
Angle
SciTegic.value.DoubleValue
1.153

@<SCITEGIC>MOL_PROPERTY
Pdih
SciTegic.value.DoubleValue
3.761

@<SCITEGIC>MOL_PROPERTY
Idih
SciTegic.value.DoubleValue
0.000

@<SCITEGIC>MOL_PROPERTY
Tether
SciTegic.value.DoubleValue
0.000

@<TRIPOS>MOLECULE
guest-s14_vm2.mol2 : vm2 ligand conformer 106
          26          25           1
SMALL
USER_CHARGES
 
@<TRIPOS>ATOM
       1    C1      19.372836   20.247231   20.006445 C.3        1 MOL1        -0.2400
       2    H1      18.321130   20.283446   20.319207 H          1 MOL1         0.0971
       3    H2      19.857833   21.177732   20.329215 H          1 MOL1         0.0971
       4    H3      19.397234   20.217474   18.909380 H          1 MOL1         0.0971
       5    C2      20.086556   19.014621   20.600976 C.3        1 MOL1        -0.1385
       6    H4      21.124971   18.987259   20.242047 H          1 MOL1         0.0960
       7    H5      19.600185   18.099503   20.234977 H          1 MOL1         0.0960
       8    C3      20.067594   19.033015   22.145525 C.3        1 MOL1        -0.1409
       9    H6      20.559940   19.946300   22.506782 H          1 MOL1         0.0960
      10    H7      19.024370   19.067466   22.483763 H          1 MOL1         0.0960
      11    C4      20.767887   17.790611   22.743633 C.3        1 MOL1        -0.1409
      12    H8      21.750770   17.672014   22.266904 H          1 MOL1         0.0960
      13    H9      20.194233   16.889520   22.486318 H          1 MOL1         0.0960
      14    C5      20.982756   17.845955   24.278480 C.3        1 MOL1        -0.1409
      15    H10     21.530341   16.937664   24.565766 H          1 MOL1         0.0960
      16    H11     21.647727   18.681057   24.533834 H          1 MOL1         0.0960
      17    C6      19.681238   17.904301   25.122482 C.3        1 MOL1        -0.1450
      18    H12     19.880748   17.474919   26.113306 H          1 MOL1         0.0960
      19    H13     18.916165   17.262630   24.665722 H          1 MOL1         0.0960
      20    C7      19.107800   19.323229   25.322868 C.3        1 MOL1         0.0172
      21    H14     18.916375   19.796557   24.358476 H          1 MOL1         0.0934
      22    H15     18.157497   19.253843   25.859166 H          1 MOL1         0.0934
      23    N1      20.014332   20.240036   26.120591 N.4        1 MOL1        -0.5956
      24    H16     19.597198   21.167876   26.252114 H          1 MOL1         0.3624
      25    H17     20.917046   20.379384   25.656638 H          1 MOL1         0.3624
      26    H18     20.208409   19.864324   27.054471 H          1 MOL1         0.3624
@<TRIPOS>BOND
    1     1     2    1
    2     1     3    1
    3     1     4    1
    4     1     5    1
    5     5     6    1
    6     5     7    1
    7     5     8    1
    8     8     9    1
    9     8    10    1
   10     8    11    1
   11    11    12    1
   12    11    13    1
   13    11    14    1
   14    14    15    1
   15    14    16    1
   16    14    17    1
   17    17    18    1
   18    17    19    1
   19    17    20    1
   20    20    21    1
   21    20    22    1
   22    20    23    1
   23    23    24    1
   24    23    25    1
   25    23    26    1
@<TRIPOS>SUBSTRUCTURE
       1 MOL1            1 RESIDUE      1      MOL     
@<SCITEGIC>MOL_PROPERTY
VM2 Rank
SciTegic.value.IntegerValue
106

@<SCITEGIC>MOL_PROPERTY
Conf_Id
SciTegic.value.IntegerValue
285

@<SCITEGIC>MOL_PROPERTY
Probability
SciTegic.value.DoubleValue
0.03

@<SCITEGIC>MOL_PROPERTY
Sum Probability
SciTegic.value.DoubleValue
99.15

@<SCITEGIC>MOL_PROPERTY
Delta G
SciTegic.value.DoubleValue
3.319

@<SCITEGIC>MOL_PROPERTY
G
SciTegic.value.DoubleValue
51.580

@<SCITEGIC>MOL_PROPERTY
E
SciTegic.value.DoubleValue
18.831

@<SCITEGIC>MOL_PROPERTY
-TS
SciTegic.value.DoubleValue
32.749

@<SCITEGIC>MOL_PROPERTY
U+W
SciTegic.value.DoubleValue
-2.631

@<SCITEGIC>MOL_PROPERTY
U
SciTegic.value.DoubleValue
51.398

@<SCITEGIC>MOL_PROPERTY
W
SciTegic.value.DoubleValue
-54.029

@<SCITEGIC>MOL_PROPERTY
W(PB)
SciTegic.value.DoubleValue
-56.346

@<SCITEGIC>MOL_PROPERTY
W(SA)
SciTegic.value.DoubleValue
2.318

@<SCITEGIC>MOL_PROPERTY
Valence
SciTegic.value.DoubleValue
4.709

@<SCITEGIC>MOL_PROPERTY
Coulomb
SciTegic.value.DoubleValue
46.080

@<SCITEGIC>MOL_PROPERTY
VdW
SciTegic.value.DoubleValue
0.609

@<SCITEGIC>MOL_PROPERTY
VdW6
SciTegic.value.DoubleValue
-8.057

@<SCITEGIC>MOL_PROPERTY
VdW12
SciTegic.value.DoubleValue
8.666

@<SCITEGIC>MOL_PROPERTY
Bond
SciTegic.value.DoubleValue
0.231

@<SCITEGIC>MOL_PROPERTY
Angle
SciTegic.value.DoubleValue
1.341

@<SCITEGIC>MOL_PROPERTY
Pdih
SciTegic.value.DoubleValue
3.136

@<SCITEGIC>MOL_PROPERTY
Idih
SciTegic.value.DoubleValue
0.000

@<SCITEGIC>MOL_PROPERTY
Tether
SciTegic.value.DoubleValue
0.000

@<TRIPOS>MOLECULE
guest-s14_vm2.mol2 : vm2 ligand conformer 107
          26          25           1
SMALL
USER_CHARGES
 
@<TRIPOS>ATOM
       1    C1      19.694507   18.753232   19.339601 C.3        1 MOL1        -0.2400
       2    H1      20.278200   17.878212   19.025188 H          1 MOL1         0.0971
       3    H2      18.729511   18.719562   18.817415 H          1 MOL1         0.0971
       4    H3      20.225491   19.655376   19.008802 H          1 MOL1         0.0971
       5    C2      19.486556   18.761832   20.868936 C.3        1 MOL1        -0.1385
       6    H4      18.927543   17.863352   21.165456 H          1 MOL1         0.0960
       7    H5      18.866379   19.626755   21.139630 H          1 MOL1         0.0960
       8    C3      20.833933   18.813117   21.627294 C.3        1 MOL1        -0.1409
       9    H6      21.466957   17.981343   21.288506 H          1 MOL1         0.0960
      10    H7      21.371261   19.735047   21.365370 H          1 MOL1         0.0960
      11    C4      20.680895   18.720131   23.165265 C.3        1 MOL1        -0.1409
      12    H8      21.683482   18.665046   23.611388 H          1 MOL1         0.0960
      13    H9      20.168771   17.781962   23.412603 H          1 MOL1         0.0960
      14    C5      19.915351   19.919025   23.778845 C.3        1 MOL1        -0.1409
      15    H10     20.321144   20.850862   23.361384 H          1 MOL1         0.0960
      16    H11     18.859724   19.880887   23.478532 H          1 MOL1         0.0960
      17    C6      19.998477   20.006309   25.324263 C.3        1 MOL1        -0.1450
      18    H12     19.505258   20.936667   25.635750 H          1 MOL1         0.0960
      19    H13     21.044090   20.097123   25.647207 H          1 MOL1         0.0960
      20    C7      19.314134   18.840813   26.068368 C.3        1 MOL1         0.0172
      21    H14     19.088678   19.155283   27.090998 H          1 MOL1         0.0934
      22    H15     18.371248   18.588716   25.575724 H          1 MOL1         0.0934
      23    N1      20.157147   17.584540   26.168428 N.4        1 MOL1        -0.5956
      24    H16     20.404532   17.218521   25.244950 H          1 MOL1         0.3624
      25    H17     19.665969   16.836153   26.669476 H          1 MOL1         0.3624
      26    H18     21.033786   17.755269   26.671826 H          1 MOL1         0.3624
@<TRIPOS>BOND
    1     1     2    1
    2     1     3    1
    3     1     4    1
    4     1     5    1
    5     5     6    1
    6     5     7    1
    7     5     8    1
    8     8     9    1
    9     8    10    1
   10     8    11    1
   11    11    12    1
   12    11    13    1
   13    11    14    1
   14    14    15    1
   15    14    16    1
   16    14    17    1
   17    17    18    1
   18    17    19    1
   19    17    20    1
   20    20    21    1
   21    20    22    1
   22    20    23    1
   23    23    24    1
   24    23    25    1
   25    23    26    1
@<TRIPOS>SUBSTRUCTURE
       1 MOL1            1 RESIDUE      1      MOL     
@<SCITEGIC>MOL_PROPERTY
VM2 Rank
SciTegic.value.IntegerValue
107

@<SCITEGIC>MOL_PROPERTY
Conf_Id
SciTegic.value.IntegerValue
246

@<SCITEGIC>MOL_PROPERTY
Probability
SciTegic.value.DoubleValue
0.03

@<SCITEGIC>MOL_PROPERTY
Sum Probability
SciTegic.value.DoubleValue
99.18

@<SCITEGIC>MOL_PROPERTY
Delta G
SciTegic.value.DoubleValue
3.344

@<SCITEGIC>MOL_PROPERTY
G
SciTegic.value.DoubleValue
51.606

@<SCITEGIC>MOL_PROPERTY
E
SciTegic.value.DoubleValue
18.964

@<SCITEGIC>MOL_PROPERTY
-TS
SciTegic.value.DoubleValue
32.642

@<SCITEGIC>MOL_PROPERTY
U+W
SciTegic.value.DoubleValue
-2.498

@<SCITEGIC>MOL_PROPERTY
U
SciTegic.value.DoubleValue
51.400

@<SCITEGIC>MOL_PROPERTY
W
SciTegic.value.DoubleValue
-53.898

@<SCITEGIC>MOL_PROPERTY
W(PB)
SciTegic.value.DoubleValue
-56.163

@<SCITEGIC>MOL_PROPERTY
W(SA)
SciTegic.value.DoubleValue
2.265

@<SCITEGIC>MOL_PROPERTY
Valence
SciTegic.value.DoubleValue
4.232

@<SCITEGIC>MOL_PROPERTY
Coulomb
SciTegic.value.DoubleValue
46.515

@<SCITEGIC>MOL_PROPERTY
VdW
SciTegic.value.DoubleValue
0.653

@<SCITEGIC>MOL_PROPERTY
VdW6
SciTegic.value.DoubleValue
-7.962

@<SCITEGIC>MOL_PROPERTY
VdW12
SciTegic.value.DoubleValue
8.615

@<SCITEGIC>MOL_PROPERTY
Bond
SciTegic.value.DoubleValue
0.225

@<SCITEGIC>MOL_PROPERTY
Angle
SciTegic.value.DoubleValue
1.150

@<SCITEGIC>MOL_PROPERTY
Pdih
SciTegic.value.DoubleValue
2.856

@<SCITEGIC>MOL_PROPERTY
Idih
SciTegic.value.DoubleValue
0.000

@<SCITEGIC>MOL_PROPERTY
Tether
SciTegic.value.DoubleValue
0.000

@<TRIPOS>MOLECULE
guest-s14_vm2.mol2 : vm2 ligand conformer 108
          26          25           1
SMALL
USER_CHARGES
 
@<TRIPOS>ATOM
       1    C1      21.087026   18.612669   20.037533 C.3        1 MOL1        -0.2400
       2    H1      22.017488   18.401455   20.580340 H          1 MOL1         0.0971
       3    H2      20.481109   17.698116   20.024655 H          1 MOL1         0.0971
       4    H3      21.350585   18.849086   18.998516 H          1 MOL1         0.0971
       5    C2      20.322069   19.790194   20.683214 C.3        1 MOL1        -0.1385
       6    H4      19.385532   19.966645   20.135936 H          1 MOL1         0.0960
       7    H5      20.919888   20.705654   20.572257 H          1 MOL1         0.0960
       8    C3      20.018150   19.573060   22.185125 C.3        1 MOL1        -0.1409
       9    H6      20.965674   19.431176   22.720479 H          1 MOL1         0.0960
      10    H7      19.559233   20.487616   22.585112 H          1 MOL1         0.0960
      11    C4      19.078757   18.371236   22.451785 C.3        1 MOL1        -0.1409
      12    H8      19.600884   17.434044   22.217254 H          1 MOL1         0.0960
      13    H9      18.224927   18.427256   21.762582 H          1 MOL1         0.0960
      14    C5      18.526949   18.295666   23.899090 C.3        1 MOL1        -0.1409
      15    H10     17.920556   19.185107   24.119838 H          1 MOL1         0.0960
      16    H11     17.833440   17.444539   23.944691 H          1 MOL1         0.0960
      17    C6      19.601889   18.099508   24.997814 C.3        1 MOL1        -0.1450
      18    H12     20.393213   17.429504   24.636194 H          1 MOL1         0.0960
      19    H13     19.136316   17.595280   25.855133 H          1 MOL1         0.0960
      20    C7      20.208966   19.425707   25.495496 C.3        1 MOL1         0.0172
      21    H14     20.695019   19.952645   24.672515 H          1 MOL1         0.0934
      22    H15     19.415363   20.066208   25.889595 H          1 MOL1         0.0934
      23    N1      21.237193   19.230960   26.590942 N.4        1 MOL1        -0.5956
      24    H16     21.626162   20.124291   26.911882 H          1 MOL1         0.3624
      25    H17     22.026512   18.657109   26.276660 H          1 MOL1         0.3624
      26    H18     20.836154   18.767940   27.413108 H          1 MOL1         0.3624
@<TRIPOS>BOND
    1     1     2    1
    2     1     3    1
    3     1     4    1
    4     1     5    1
    5     5     6    1
    6     5     7    1
    7     5     8    1
    8     8     9    1
    9     8    10    1
   10     8    11    1
   11    11    12    1
   12    11    13    1
   13    11    14    1
   14    14    15    1
   15    14    16    1
   16    14    17    1
   17    17    18    1
   18    17    19    1
   19    17    20    1
   20    20    21    1
   21    20    22    1
   22    20    23    1
   23    23    24    1
   24    23    25    1
   25    23    26    1
@<TRIPOS>SUBSTRUCTURE
       1 MOL1            1 RESIDUE      1      MOL     
@<SCITEGIC>MOL_PROPERTY
VM2 Rank
SciTegic.value.IntegerValue
108

@<SCITEGIC>MOL_PROPERTY
Conf_Id
SciTegic.value.IntegerValue
1277

@<SCITEGIC>MOL_PROPERTY
Probability
SciTegic.value.DoubleValue
0.03

@<SCITEGIC>MOL_PROPERTY
Sum Probability
SciTegic.value.DoubleValue
99.21

@<SCITEGIC>MOL_PROPERTY
Delta G
SciTegic.value.DoubleValue
3.345

@<SCITEGIC>MOL_PROPERTY
G
SciTegic.value.DoubleValue
51.607

@<SCITEGIC>MOL_PROPERTY
E
SciTegic.value.DoubleValue
18.792

@<SCITEGIC>MOL_PROPERTY
-TS
SciTegic.value.DoubleValue
32.815

@<SCITEGIC>MOL_PROPERTY
U+W
SciTegic.value.DoubleValue
-2.670

@<SCITEGIC>MOL_PROPERTY
U
SciTegic.value.DoubleValue
51.327

@<SCITEGIC>MOL_PROPERTY
W
SciTegic.value.DoubleValue
-53.997

@<SCITEGIC>MOL_PROPERTY
W(PB)
SciTegic.value.DoubleValue
-56.278

@<SCITEGIC>MOL_PROPERTY
W(SA)
SciTegic.value.DoubleValue
2.281

@<SCITEGIC>MOL_PROPERTY
Valence
SciTegic.value.DoubleValue
4.992

@<SCITEGIC>MOL_PROPERTY
Coulomb
SciTegic.value.DoubleValue
45.664

@<SCITEGIC>MOL_PROPERTY
VdW
SciTegic.value.DoubleValue
0.672

@<SCITEGIC>MOL_PROPERTY
VdW6
SciTegic.value.DoubleValue
-8.113

@<SCITEGIC>MOL_PROPERTY
VdW12
SciTegic.value.DoubleValue
8.785

@<SCITEGIC>MOL_PROPERTY
Bond
SciTegic.value.DoubleValue
0.231

@<SCITEGIC>MOL_PROPERTY
Angle
SciTegic.value.DoubleValue
1.333

@<SCITEGIC>MOL_PROPERTY
Pdih
SciTegic.value.DoubleValue
3.427

@<SCITEGIC>MOL_PROPERTY
Idih
SciTegic.value.DoubleValue
0.000

@<SCITEGIC>MOL_PROPERTY
Tether
SciTegic.value.DoubleValue
0.000

@<TRIPOS>MOLECULE
guest-s14_vm2.mol2 : vm2 ligand conformer 109
          26          25           1
SMALL
USER_CHARGES
 
@<TRIPOS>ATOM
       1    C1      20.603033   20.343004   20.645900 C.3        1 MOL1        -0.2400
       2    H1      21.259563   20.300858   21.523643 H          1 MOL1         0.0971
       3    H2      21.135894   20.900977   19.865132 H          1 MOL1         0.0971
       4    H3      19.701557   20.911273   20.909079 H          1 MOL1         0.0971
       5    C2      20.243302   18.926767   20.146424 C.3        1 MOL1        -0.1385
       6    H4      21.166752   18.362756   19.954446 H          1 MOL1         0.0960
       7    H5      19.733537   19.014389   19.176771 H          1 MOL1         0.0960
       8    C3      19.333214   18.121497   21.108778 C.3        1 MOL1        -0.1409
       9    H6      18.365019   18.627650   21.224970 H          1 MOL1         0.0960
      10    H7      19.108513   17.161258   20.624157 H          1 MOL1         0.0960
      11    C4      19.957346   17.826670   22.497754 C.3        1 MOL1        -0.1409
      12    H8      21.051270   17.767868   22.413901 H          1 MOL1         0.0960
      13    H9      19.624006   16.831691   22.823855 H          1 MOL1         0.0960
      14    C5      19.552180   18.851283   23.585738 C.3        1 MOL1        -0.1409
      15    H10     19.837786   19.865666   23.282764 H          1 MOL1         0.0960
      16    H11     18.458710   18.853824   23.694598 H          1 MOL1         0.0960
      17    C6      20.200871   18.526342   24.949235 C.3        1 MOL1        -0.1450
      18    H12     21.294370   18.526854   24.847574 H          1 MOL1         0.0960
      19    H13     19.907007   17.517359   25.268091 H          1 MOL1         0.0960
      20    C7      19.786957   19.544191   26.026580 C.3        1 MOL1         0.0172
      21    H14     20.092570   20.548536   25.721030 H          1 MOL1         0.0934
      22    H15     18.699799   19.535729   26.142717 H          1 MOL1         0.0934
      23    N1      20.404098   19.259246   27.380592 N.4        1 MOL1        -0.5956
      24    H16     20.115526   19.948558   28.083451 H          1 MOL1         0.3624
      25    H17     21.428588   19.279742   27.345659 H          1 MOL1         0.3624
      26    H18     20.132651   18.337355   27.737903 H          1 MOL1         0.3624
@<TRIPOS>BOND
    1     1     2    1
    2     1     3    1
    3     1     4    1
    4     1     5    1
    5     5     6    1
    6     5     7    1
    7     5     8    1
    8     8     9    1
    9     8    10    1
   10     8    11    1
   11    11    12    1
   12    11    13    1
   13    11    14    1
   14    14    15    1
   15    14    16    1
   16    14    17    1
   17    17    18    1
   18    17    19    1
   19    17    20    1
   20    20    21    1
   21    20    22    1
   22    20    23    1
   23    23    24    1
   24    23    25    1
   25    23    26    1
@<TRIPOS>SUBSTRUCTURE
       1 MOL1            1 RESIDUE      1      MOL     
@<SCITEGIC>MOL_PROPERTY
VM2 Rank
SciTegic.value.IntegerValue
109

@<SCITEGIC>MOL_PROPERTY
Conf_Id
SciTegic.value.IntegerValue
991

@<SCITEGIC>MOL_PROPERTY
Probability
SciTegic.value.DoubleValue
0.03

@<SCITEGIC>MOL_PROPERTY
Sum Probability
SciTegic.value.DoubleValue
99.23

@<SCITEGIC>MOL_PROPERTY
Delta G
SciTegic.value.DoubleValue
3.355

@<SCITEGIC>MOL_PROPERTY
G
SciTegic.value.DoubleValue
51.616

@<SCITEGIC>MOL_PROPERTY
E
SciTegic.value.DoubleValue
18.913

@<SCITEGIC>MOL_PROPERTY
-TS
SciTegic.value.DoubleValue
32.704

@<SCITEGIC>MOL_PROPERTY
U+W
SciTegic.value.DoubleValue
-2.549

@<SCITEGIC>MOL_PROPERTY
U
SciTegic.value.DoubleValue
50.662

@<SCITEGIC>MOL_PROPERTY
W
SciTegic.value.DoubleValue
-53.211

@<SCITEGIC>MOL_PROPERTY
W(PB)
SciTegic.value.DoubleValue
-55.518

@<SCITEGIC>MOL_PROPERTY
W(SA)
SciTegic.value.DoubleValue
2.307

@<SCITEGIC>MOL_PROPERTY
Valence
SciTegic.value.DoubleValue
5.128

@<SCITEGIC>MOL_PROPERTY
Coulomb
SciTegic.value.DoubleValue
44.842

@<SCITEGIC>MOL_PROPERTY
VdW
SciTegic.value.DoubleValue
0.692

@<SCITEGIC>MOL_PROPERTY
VdW6
SciTegic.value.DoubleValue
-7.327

@<SCITEGIC>MOL_PROPERTY
VdW12
SciTegic.value.DoubleValue
8.019

@<SCITEGIC>MOL_PROPERTY
Bond
SciTegic.value.DoubleValue
0.214

@<SCITEGIC>MOL_PROPERTY
Angle
SciTegic.value.DoubleValue
1.153

@<SCITEGIC>MOL_PROPERTY
Pdih
SciTegic.value.DoubleValue
3.761

@<SCITEGIC>MOL_PROPERTY
Idih
SciTegic.value.DoubleValue
0.000

@<SCITEGIC>MOL_PROPERTY
Tether
SciTegic.value.DoubleValue
0.000

@<TRIPOS>MOLECULE
guest-s14_vm2.mol2 : vm2 ligand conformer 110
          26          25           1
SMALL
USER_CHARGES
 
@<TRIPOS>ATOM
       1    C1      21.442702   19.581518   20.126753 C.3        1 MOL1        -0.2400
       2    H1      21.562177   20.591381   20.540395 H          1 MOL1         0.0971
       3    H2      22.442446   19.191807   19.895098 H          1 MOL1         0.0971
       4    H3      20.885681   19.661771   19.184140 H          1 MOL1         0.0971
       5    C2      20.714781   18.656280   21.124725 C.3        1 MOL1        -0.1385
       6    H4      21.318885   18.564167   22.035235 H          1 MOL1         0.0960
       7    H5      20.642204   17.647192   20.695505 H          1 MOL1         0.0960
       8    C3      19.296871   19.180131   21.457876 C.3        1 MOL1        -0.1409
       9    H6      19.346618   20.213092   21.828854 H          1 MOL1         0.0960
      10    H7      18.720796   19.221911   20.523078 H          1 MOL1         0.0960
      11    C4      18.529487   18.286889   22.467348 C.3        1 MOL1        -0.1409
      12    H8      18.861358   17.242958   22.382049 H          1 MOL1         0.0960
      13    H9      17.468240   18.283266   22.182385 H          1 MOL1         0.0960
      14    C5      18.613673   18.754728   23.943373 C.3        1 MOL1        -0.1409
      15    H10     18.177770   19.759453   24.033223 H          1 MOL1         0.0960
      16    H11     17.981641   18.092414   24.551309 H          1 MOL1         0.0960
      17    C6      20.042951   18.761499   24.531199 C.3        1 MOL1        -0.1450
      18    H12     20.653905   19.513378   24.016203 H          1 MOL1         0.0960
      19    H13     20.515537   17.783708   24.368940 H          1 MOL1         0.0960
      20    C7      20.028268   19.079172   26.036766 C.3        1 MOL1         0.0172
      21    H14     19.571349   20.058682   26.201839 H          1 MOL1         0.0934
      22    H15     19.434237   18.328894   26.565598 H          1 MOL1         0.0934
      23    N1      21.412267   19.098784   26.652960 N.4        1 MOL1        -0.5956
      24    H16     21.379327   19.311768   27.655948 H          1 MOL1         0.3624
      25    H17     22.014637   19.805078   26.217716 H          1 MOL1         0.3624
      26    H18     21.886830   18.195199   26.555475 H          1 MOL1         0.3624
@<TRIPOS>BOND
    1     1     2    1
    2     1     3    1
    3     1     4    1
    4     1     5    1
    5     5     6    1
    6     5     7    1
    7     5     8    1
    8     8     9    1
    9     8    10    1
   10     8    11    1
   11    11    12    1
   12    11    13    1
   13    11    14    1
   14    14    15    1
   15    14    16    1
   16    14    17    1
   17    17    18    1
   18    17    19    1
   19    17    20    1
   20    20    21    1
   21    20    22    1
   22    20    23    1
   23    23    24    1
   24    23    25    1
   25    23    26    1
@<TRIPOS>SUBSTRUCTURE
       1 MOL1            1 RESIDUE      1      MOL     
@<SCITEGIC>MOL_PROPERTY
VM2 Rank
SciTegic.value.IntegerValue
110

@<SCITEGIC>MOL_PROPERTY
Conf_Id
SciTegic.value.IntegerValue
1058

@<SCITEGIC>MOL_PROPERTY
Probability
SciTegic.value.DoubleValue
0.03

@<SCITEGIC>MOL_PROPERTY
Sum Probability
SciTegic.value.DoubleValue
99.26

@<SCITEGIC>MOL_PROPERTY
Delta G
SciTegic.value.DoubleValue
3.395

@<SCITEGIC>MOL_PROPERTY
G
SciTegic.value.DoubleValue
51.656

@<SCITEGIC>MOL_PROPERTY
E
SciTegic.value.DoubleValue
18.928

@<SCITEGIC>MOL_PROPERTY
-TS
SciTegic.value.DoubleValue
32.728

@<SCITEGIC>MOL_PROPERTY
U+W
SciTegic.value.DoubleValue
-2.534

@<SCITEGIC>MOL_PROPERTY
U
SciTegic.value.DoubleValue
51.184

@<SCITEGIC>MOL_PROPERTY
W
SciTegic.value.DoubleValue
-53.717

@<SCITEGIC>MOL_PROPERTY
W(PB)
SciTegic.value.DoubleValue
-56.008

@<SCITEGIC>MOL_PROPERTY
W(SA)
SciTegic.value.DoubleValue
2.290

@<SCITEGIC>MOL_PROPERTY
Valence
SciTegic.value.DoubleValue
5.187

@<SCITEGIC>MOL_PROPERTY
Coulomb
SciTegic.value.DoubleValue
45.355

@<SCITEGIC>MOL_PROPERTY
VdW
SciTegic.value.DoubleValue
0.642

@<SCITEGIC>MOL_PROPERTY
VdW6
SciTegic.value.DoubleValue
-7.428

@<SCITEGIC>MOL_PROPERTY
VdW12
SciTegic.value.DoubleValue
8.070

@<SCITEGIC>MOL_PROPERTY
Bond
SciTegic.value.DoubleValue
0.216

@<SCITEGIC>MOL_PROPERTY
Angle
SciTegic.value.DoubleValue
1.173

@<SCITEGIC>MOL_PROPERTY
Pdih
SciTegic.value.DoubleValue
3.798

@<SCITEGIC>MOL_PROPERTY
Idih
SciTegic.value.DoubleValue
0.000

@<SCITEGIC>MOL_PROPERTY
Tether
SciTegic.value.DoubleValue
0.000

@<TRIPOS>MOLECULE
guest-s14_vm2.mol2 : vm2 ligand conformer 111
          26          25           1
SMALL
USER_CHARGES
 
@<TRIPOS>ATOM
       1    C1      20.475881   19.268175   19.365716 C.3        1 MOL1        -0.2400
       2    H1      20.910800   20.156925   18.890323 H          1 MOL1         0.0971
       3    H2      21.064269   18.396254   19.051444 H          1 MOL1         0.0971
       4    H3      19.454048   19.147166   18.983028 H          1 MOL1         0.0971
       5    C2      20.478598   19.415552   20.902093 C.3        1 MOL1        -0.1385
       6    H4      21.509687   19.564829   21.251746 H          1 MOL1         0.0960
       7    H5      19.915842   20.318304   21.174729 H          1 MOL1         0.0960
       8    C3      19.866104   18.175394   21.594931 C.3        1 MOL1        -0.1409
       9    H6      18.820403   18.054234   21.280118 H          1 MOL1         0.0960
      10    H7      20.396533   17.276033   21.252676 H          1 MOL1         0.0960
      11    C4      19.940100   18.231934   23.140490 C.3        1 MOL1        -0.1409
      12    H8      20.991474   18.323984   23.440069 H          1 MOL1         0.0960
      13    H9      19.575461   17.275922   23.540891 H          1 MOL1         0.0960
      14    C5      19.111921   19.389531   23.752026 C.3        1 MOL1        -0.1409
      15    H10     19.576181   20.352950   23.502476 H          1 MOL1         0.0960
      16    H11     18.116095   19.397767   23.287782 H          1 MOL1         0.0960
      17    C6      18.927192   19.300257   25.288499 C.3        1 MOL1        -0.1450
      18    H12     18.417572   18.366077   25.559502 H          1 MOL1         0.0960
      19    H13     18.252375   20.110928   25.593934 H          1 MOL1         0.0960
      20    C7      20.231919   19.445665   26.099019 C.3        1 MOL1         0.0172
      21    H14     20.857141   20.227035   25.658742 H          1 MOL1         0.0934
      22    H15     19.984245   19.745494   27.120907 H          1 MOL1         0.0934
      23    N1      21.049285   18.172493   26.198226 N.4        1 MOL1        -0.5956
      24    H16     21.331067   17.829140   25.275898 H          1 MOL1         0.3624
      25    H17     20.524324   17.419500   26.654810 H          1 MOL1         0.3624
      26    H18     21.906332   18.312658   26.744315 H          1 MOL1         0.3624
@<TRIPOS>BOND
    1     1     2    1
    2     1     3    1
    3     1     4    1
    4     1     5    1
    5     5     6    1
    6     5     7    1
    7     5     8    1
    8     8     9    1
    9     8    10    1
   10     8    11    1
   11    11    12    1
   12    11    13    1
   13    11    14    1
   14    14    15    1
   15    14    16    1
   16    14    17    1
   17    17    18    1
   18    17    19    1
   19    17    20    1
   20    20    21    1
   21    20    22    1
   22    20    23    1
   23    23    24    1
   24    23    25    1
   25    23    26    1
@<TRIPOS>SUBSTRUCTURE
       1 MOL1            1 RESIDUE      1      MOL     
@<SCITEGIC>MOL_PROPERTY
VM2 Rank
SciTegic.value.IntegerValue
111

@<SCITEGIC>MOL_PROPERTY
Conf_Id
SciTegic.value.IntegerValue
1084

@<SCITEGIC>MOL_PROPERTY
Probability
SciTegic.value.DoubleValue
0.02

@<SCITEGIC>MOL_PROPERTY
Sum Probability
SciTegic.value.DoubleValue
99.28

@<SCITEGIC>MOL_PROPERTY
Delta G
SciTegic.value.DoubleValue
3.412

@<SCITEGIC>MOL_PROPERTY
G
SciTegic.value.DoubleValue
51.674

@<SCITEGIC>MOL_PROPERTY
E
SciTegic.value.DoubleValue
19.033

@<SCITEGIC>MOL_PROPERTY
-TS
SciTegic.value.DoubleValue
32.641

@<SCITEGIC>MOL_PROPERTY
U+W
SciTegic.value.DoubleValue
-2.429

@<SCITEGIC>MOL_PROPERTY
U
SciTegic.value.DoubleValue
51.400

@<SCITEGIC>MOL_PROPERTY
W
SciTegic.value.DoubleValue
-53.829

@<SCITEGIC>MOL_PROPERTY
W(PB)
SciTegic.value.DoubleValue
-56.114

@<SCITEGIC>MOL_PROPERTY
W(SA)
SciTegic.value.DoubleValue
2.284

@<SCITEGIC>MOL_PROPERTY
Valence
SciTegic.value.DoubleValue
4.232

@<SCITEGIC>MOL_PROPERTY
Coulomb
SciTegic.value.DoubleValue
46.515

@<SCITEGIC>MOL_PROPERTY
VdW
SciTegic.value.DoubleValue
0.653

@<SCITEGIC>MOL_PROPERTY
VdW6
SciTegic.value.DoubleValue
-7.962

@<SCITEGIC>MOL_PROPERTY
VdW12
SciTegic.value.DoubleValue
8.615

@<SCITEGIC>MOL_PROPERTY
Bond
SciTegic.value.DoubleValue
0.225

@<SCITEGIC>MOL_PROPERTY
Angle
SciTegic.value.DoubleValue
1.151

@<SCITEGIC>MOL_PROPERTY
Pdih
SciTegic.value.DoubleValue
2.857

@<SCITEGIC>MOL_PROPERTY
Idih
SciTegic.value.DoubleValue
0.000

@<SCITEGIC>MOL_PROPERTY
Tether
SciTegic.value.DoubleValue
0.000

@<TRIPOS>MOLECULE
guest-s14_vm2.mol2 : vm2 ligand conformer 112
          26          25           1
SMALL
USER_CHARGES
 
@<TRIPOS>ATOM
       1    C1      21.275262   19.649800   19.981326 C.3        1 MOL1        -0.2400
       2    H1      21.139791   18.922410   19.170296 H          1 MOL1         0.0971
       3    H2      20.748877   20.572606   19.704571 H          1 MOL1         0.0971
       4    H3      22.346206   19.880548   20.050966 H          1 MOL1         0.0971
       5    C2      20.749740   19.092326   21.321205 C.3        1 MOL1        -0.1385
       6    H4      20.938280   19.832526   22.109851 H          1 MOL1         0.0960
       7    H5      21.312141   18.185706   21.584412 H          1 MOL1         0.0960
       8    C3      19.239465   18.770626   21.251831 C.3        1 MOL1        -0.1409
       9    H6      18.676852   19.698050   21.076911 H          1 MOL1         0.0960
      10    H7      19.051196   18.130606   20.378756 H          1 MOL1         0.0960
      11    C4      18.676879   18.055762   22.507623 C.3        1 MOL1        -0.1409
      12    H8      19.158017   17.075802   22.631658 H          1 MOL1         0.0960
      13    H9      17.616050   17.841541   22.317314 H          1 MOL1         0.0960
      14    C5      18.775421   18.875062   23.820977 C.3        1 MOL1        -0.1409
      15    H10     18.750702   19.950811   23.598154 H          1 MOL1         0.0960
      16    H11     17.881221   18.670662   24.426299 H          1 MOL1         0.0960
      17    C6      20.020531   18.528063   24.672082 C.3        1 MOL1        -0.1450
      18    H12     20.939419   18.690354   24.097586 H          1 MOL1         0.0960
      19    H13     19.996932   17.462990   24.938536 H          1 MOL1         0.0960
      20    C7      20.072231   19.371810   25.957852 C.3        1 MOL1         0.0172
      21    H14     20.113051   20.433535   25.699918 H          1 MOL1         0.0934
      22    H15     19.170019   19.196085   26.549967 H          1 MOL1         0.0934
      23    N1      21.271472   19.055550   26.828104 N.4        1 MOL1        -0.5956
      24    H16     22.155571   19.227261   26.338193 H          1 MOL1         0.3624
      25    H17     21.277849   18.075199   27.128265 H          1 MOL1         0.3624
      26    H18     21.285780   19.628144   27.679202 H          1 MOL1         0.3624
@<TRIPOS>BOND
    1     1     2    1
    2     1     3    1
    3     1     4    1
    4     1     5    1
    5     5     6    1
    6     5     7    1
    7     5     8    1
    8     8     9    1
    9     8    10    1
   10     8    11    1
   11    11    12    1
   12    11    13    1
   13    11    14    1
   14    14    15    1
   15    14    16    1
   16    14    17    1
   17    17    18    1
   18    17    19    1
   19    17    20    1
   20    20    21    1
   21    20    22    1
   22    20    23    1
   23    23    24    1
   24    23    25    1
   25    23    26    1
@<TRIPOS>SUBSTRUCTURE
       1 MOL1            1 RESIDUE      1      MOL     
@<SCITEGIC>MOL_PROPERTY
VM2 Rank
SciTegic.value.IntegerValue
112

@<SCITEGIC>MOL_PROPERTY
Conf_Id
SciTegic.value.IntegerValue
743

@<SCITEGIC>MOL_PROPERTY
Probability
SciTegic.value.DoubleValue
0.02

@<SCITEGIC>MOL_PROPERTY
Sum Probability
SciTegic.value.DoubleValue
99.31

@<SCITEGIC>MOL_PROPERTY
Delta G
SciTegic.value.DoubleValue
3.421

@<SCITEGIC>MOL_PROPERTY
G
SciTegic.value.DoubleValue
51.682

@<SCITEGIC>MOL_PROPERTY
E
SciTegic.value.DoubleValue
18.960

@<SCITEGIC>MOL_PROPERTY
-TS
SciTegic.value.DoubleValue
32.722

@<SCITEGIC>MOL_PROPERTY
U+W
SciTegic.value.DoubleValue
-2.502

@<SCITEGIC>MOL_PROPERTY
U
SciTegic.value.DoubleValue
51.214

@<SCITEGIC>MOL_PROPERTY
W
SciTegic.value.DoubleValue
-53.716

@<SCITEGIC>MOL_PROPERTY
W(PB)
SciTegic.value.DoubleValue
-56.009

@<SCITEGIC>MOL_PROPERTY
W(SA)
SciTegic.value.DoubleValue
2.294

@<SCITEGIC>MOL_PROPERTY
Valence
SciTegic.value.DoubleValue
5.193

@<SCITEGIC>MOL_PROPERTY
Coulomb
SciTegic.value.DoubleValue
45.364

@<SCITEGIC>MOL_PROPERTY
VdW
SciTegic.value.DoubleValue
0.656

@<SCITEGIC>MOL_PROPERTY
VdW6
SciTegic.value.DoubleValue
-7.405

@<SCITEGIC>MOL_PROPERTY
VdW12
SciTegic.value.DoubleValue
8.062

@<SCITEGIC>MOL_PROPERTY
Bond
SciTegic.value.DoubleValue
0.216

@<SCITEGIC>MOL_PROPERTY
Angle
SciTegic.value.DoubleValue
1.176

@<SCITEGIC>MOL_PROPERTY
Pdih
SciTegic.value.DoubleValue
3.800

@<SCITEGIC>MOL_PROPERTY
Idih
SciTegic.value.DoubleValue
0.000

@<SCITEGIC>MOL_PROPERTY
Tether
SciTegic.value.DoubleValue
0.000

@<TRIPOS>MOLECULE
guest-s14_vm2.mol2 : vm2 ligand conformer 113
          26          25           1
SMALL
USER_CHARGES
 
@<TRIPOS>ATOM
       1    C1      19.972636   18.963776   19.227443 C.3        1 MOL1        -0.2400
       2    H1      19.336529   19.846947   19.083840 H          1 MOL1         0.0971
       3    H2      20.823618   19.045765   18.538860 H          1 MOL1         0.0971
       4    H3      19.393768   18.075433   18.942876 H          1 MOL1         0.0971
       5    C2      20.461225   18.864172   20.688180 C.3        1 MOL1        -0.1385
       6    H4      21.069716   19.748031   20.919539 H          1 MOL1         0.0960
       7    H5      21.117497   17.988978   20.793181 H          1 MOL1         0.0960
       8    C3      19.277366   18.751454   21.678161 C.3        1 MOL1        -0.1409
       9    H6      18.649898   19.651004   21.611908 H          1 MOL1         0.0960
      10    H7      18.640724   17.909526   21.372798 H          1 MOL1         0.0960
      11    C4      19.711816   18.526600   23.147695 C.3        1 MOL1        -0.1409
      12    H8      20.365243   17.645259   23.206674 H          1 MOL1         0.0960
      13    H9      18.810068   18.293729   23.726650 H          1 MOL1         0.0960
      14    C5      20.418456   19.752686   23.778865 C.3        1 MOL1        -0.1409
      15    H10     21.268459   20.049406   23.151838 H          1 MOL1         0.0960
      16    H11     19.729174   20.608305   23.785647 H          1 MOL1         0.0960
      17    C6      20.955825   19.513352   25.213244 C.3        1 MOL1        -0.1450
      18    H12     21.499176   20.416028   25.522800 H          1 MOL1         0.0960
      19    H13     21.695734   18.701929   25.213940 H          1 MOL1         0.0960
      20    C7      19.866393   19.236928   26.270191 C.3        1 MOL1         0.0172
      21    H14     20.256633   19.494399   27.258583 H          1 MOL1         0.0934
      22    H15     18.992755   19.865089   26.076624 H          1 MOL1         0.0934
      23    N1      19.417282   17.790033   26.337221 N.4        1 MOL1        -0.5956
      24    H16     20.193119   17.162829   26.573399 H          1 MOL1         0.3624
      25    H17     19.030277   17.469455   25.445323 H          1 MOL1         0.3624
      26    H18     18.692714   17.649636   27.049749 H          1 MOL1         0.3624
@<TRIPOS>BOND
    1     1     2    1
    2     1     3    1
    3     1     4    1
    4     1     5    1
    5     5     6    1
    6     5     7    1
    7     5     8    1
    8     8     9    1
    9     8    10    1
   10     8    11    1
   11    11    12    1
   12    11    13    1
   13    11    14    1
   14    14    15    1
   15    14    16    1
   16    14    17    1
   17    17    18    1
   18    17    19    1
   19    17    20    1
   20    20    21    1
   21    20    22    1
   22    20    23    1
   23    23    24    1
   24    23    25    1
   25    23    26    1
@<TRIPOS>SUBSTRUCTURE
       1 MOL1            1 RESIDUE      1      MOL     
@<SCITEGIC>MOL_PROPERTY
VM2 Rank
SciTegic.value.IntegerValue
113

@<SCITEGIC>MOL_PROPERTY
Conf_Id
SciTegic.value.IntegerValue
819

@<SCITEGIC>MOL_PROPERTY
Probability
SciTegic.value.DoubleValue
0.02

@<SCITEGIC>MOL_PROPERTY
Sum Probability
SciTegic.value.DoubleValue
99.33

@<SCITEGIC>MOL_PROPERTY
Delta G
SciTegic.value.DoubleValue
3.446

@<SCITEGIC>MOL_PROPERTY
G
SciTegic.value.DoubleValue
51.708

@<SCITEGIC>MOL_PROPERTY
E
SciTegic.value.DoubleValue
19.200

@<SCITEGIC>MOL_PROPERTY
-TS
SciTegic.value.DoubleValue
32.507

@<SCITEGIC>MOL_PROPERTY
U+W
SciTegic.value.DoubleValue
-2.261

@<SCITEGIC>MOL_PROPERTY
U
SciTegic.value.DoubleValue
51.605

@<SCITEGIC>MOL_PROPERTY
W
SciTegic.value.DoubleValue
-53.867

@<SCITEGIC>MOL_PROPERTY
W(PB)
SciTegic.value.DoubleValue
-56.159

@<SCITEGIC>MOL_PROPERTY
W(SA)
SciTegic.value.DoubleValue
2.292

@<SCITEGIC>MOL_PROPERTY
Valence
SciTegic.value.DoubleValue
4.452

@<SCITEGIC>MOL_PROPERTY
Coulomb
SciTegic.value.DoubleValue
46.417

@<SCITEGIC>MOL_PROPERTY
VdW
SciTegic.value.DoubleValue
0.736

@<SCITEGIC>MOL_PROPERTY
VdW6
SciTegic.value.DoubleValue
-7.820

@<SCITEGIC>MOL_PROPERTY
VdW12
SciTegic.value.DoubleValue
8.557

@<SCITEGIC>MOL_PROPERTY
Bond
SciTegic.value.DoubleValue
0.235

@<SCITEGIC>MOL_PROPERTY
Angle
SciTegic.value.DoubleValue
1.295

@<SCITEGIC>MOL_PROPERTY
Pdih
SciTegic.value.DoubleValue
2.922

@<SCITEGIC>MOL_PROPERTY
Idih
SciTegic.value.DoubleValue
0.000

@<SCITEGIC>MOL_PROPERTY
Tether
SciTegic.value.DoubleValue
0.000

@<TRIPOS>MOLECULE
guest-s14_vm2.mol2 : vm2 ligand conformer 114
          26          25           1
SMALL
USER_CHARGES
 
@<TRIPOS>ATOM
       1    C1      20.027837   17.655989   20.149773 C.3        1 MOL1        -0.2400
       2    H1      19.991547   16.968636   21.003931 H          1 MOL1         0.0971
       3    H2      18.998261   17.862671   19.829947 H          1 MOL1         0.0971
       4    H3      20.536071   17.134478   19.328398 H          1 MOL1         0.0971
       5    C2      20.772859   18.963177   20.503292 C.3        1 MOL1        -0.1385
       6    H4      21.789291   18.727532   20.848326 H          1 MOL1         0.0960
       7    H5      20.889972   19.562174   19.589353 H          1 MOL1         0.0960
       8    C3      20.043531   19.818663   21.567256 C.3        1 MOL1        -0.1409
       9    H6      20.582291   20.769743   21.679487 H          1 MOL1         0.0960
      10    H7      19.037959   20.073806   21.205312 H          1 MOL1         0.0960
      11    C4      19.942483   19.129067   22.948876 C.3        1 MOL1        -0.1409
      12    H8      20.948612   18.829136   23.266369 H          1 MOL1         0.0960
      13    H9      19.335691   18.217831   22.866188 H          1 MOL1         0.0960
      14    C5      19.315766   20.065037   24.009365 C.3        1 MOL1        -0.1409
      15    H10     19.981279   20.922405   24.180981 H          1 MOL1         0.0960
      16    H11     18.379980   20.479242   23.609126 H          1 MOL1         0.0960
      17    C6      18.999034   19.379393   25.363123 C.3        1 MOL1        -0.1450
      18    H12     18.283700   18.558933   25.218176 H          1 MOL1         0.0960
      19    H13     18.489610   20.113857   26.001014 H          1 MOL1         0.0960
      20    C7      20.237994   18.871148   26.129295 C.3        1 MOL1         0.0172
      21    H14     21.052766   19.594577   26.039343 H          1 MOL1         0.0934
      22    H15     19.986043   18.774426   27.188852 H          1 MOL1         0.0934
      23    N1      20.741496   17.516527   25.670020 N.4        1 MOL1        -0.5956
      24    H16     21.565560   17.216984   26.202587 H          1 MOL1         0.3624
      25    H17     21.006644   17.524780   24.681226 H          1 MOL1         0.3624
      26    H18     20.029701   16.788012   25.787091 H          1 MOL1         0.3624
@<TRIPOS>BOND
    1     1     2    1
    2     1     3    1
    3     1     4    1
    4     1     5    1
    5     5     6    1
    6     5     7    1
    7     5     8    1
    8     8     9    1
    9     8    10    1
   10     8    11    1
   11    11    12    1
   12    11    13    1
   13    11    14    1
   14    14    15    1
   15    14    16    1
   16    14    17    1
   17    17    18    1
   18    17    19    1
   19    17    20    1
   20    20    21    1
   21    20    22    1
   22    20    23    1
   23    23    24    1
   24    23    25    1
   25    23    26    1
@<TRIPOS>SUBSTRUCTURE
       1 MOL1            1 RESIDUE      1      MOL     
@<SCITEGIC>MOL_PROPERTY
VM2 Rank
SciTegic.value.IntegerValue
114

@<SCITEGIC>MOL_PROPERTY
Conf_Id
SciTegic.value.IntegerValue
1118

@<SCITEGIC>MOL_PROPERTY
Probability
SciTegic.value.DoubleValue
0.02

@<SCITEGIC>MOL_PROPERTY
Sum Probability
SciTegic.value.DoubleValue
99.35

@<SCITEGIC>MOL_PROPERTY
Delta G
SciTegic.value.DoubleValue
3.493

@<SCITEGIC>MOL_PROPERTY
G
SciTegic.value.DoubleValue
51.754

@<SCITEGIC>MOL_PROPERTY
E
SciTegic.value.DoubleValue
19.126

@<SCITEGIC>MOL_PROPERTY
-TS
SciTegic.value.DoubleValue
32.629

@<SCITEGIC>MOL_PROPERTY
U+W
SciTegic.value.DoubleValue
-2.336

@<SCITEGIC>MOL_PROPERTY
U
SciTegic.value.DoubleValue
51.553

@<SCITEGIC>MOL_PROPERTY
W
SciTegic.value.DoubleValue
-53.889

@<SCITEGIC>MOL_PROPERTY
W(PB)
SciTegic.value.DoubleValue
-56.153

@<SCITEGIC>MOL_PROPERTY
W(SA)
SciTegic.value.DoubleValue
2.263

@<SCITEGIC>MOL_PROPERTY
Valence
SciTegic.value.DoubleValue
4.249

@<SCITEGIC>MOL_PROPERTY
Coulomb
SciTegic.value.DoubleValue
46.644

@<SCITEGIC>MOL_PROPERTY
VdW
SciTegic.value.DoubleValue
0.661

@<SCITEGIC>MOL_PROPERTY
VdW6
SciTegic.value.DoubleValue
-7.941

@<SCITEGIC>MOL_PROPERTY
VdW12
SciTegic.value.DoubleValue
8.602

@<SCITEGIC>MOL_PROPERTY
Bond
SciTegic.value.DoubleValue
0.222

@<SCITEGIC>MOL_PROPERTY
Angle
SciTegic.value.DoubleValue
1.190

@<SCITEGIC>MOL_PROPERTY
Pdih
SciTegic.value.DoubleValue
2.837

@<SCITEGIC>MOL_PROPERTY
Idih
SciTegic.value.DoubleValue
0.000

@<SCITEGIC>MOL_PROPERTY
Tether
SciTegic.value.DoubleValue
0.000

@<TRIPOS>MOLECULE
guest-s14_vm2.mol2 : vm2 ligand conformer 115
          26          25           1
SMALL
USER_CHARGES
 
@<TRIPOS>ATOM
       1    C1      21.314392   18.502398   20.193348 C.3        1 MOL1        -0.2400
       2    H1      21.919372   18.237050   21.069104 H          1 MOL1         0.0971
       3    H2      21.630982   17.854738   19.365556 H          1 MOL1         0.0971
       4    H3      21.545992   19.538945   19.915924 H          1 MOL1         0.0971
       5    C2      19.804273   18.325662   20.470970 C.3        1 MOL1        -0.1385
       6    H4      19.603289   17.288945   20.775168 H          1 MOL1         0.0960
       7    H5      19.251281   18.483574   19.534455 H          1 MOL1         0.0960
       8    C3      19.257017   19.301101   21.540936 C.3        1 MOL1        -0.1409
       9    H6      19.436333   20.336106   21.218619 H          1 MOL1         0.0960
      10    H7      18.166436   19.179750   21.598550 H          1 MOL1         0.0960
      11    C4      19.865181   19.078449   22.946346 C.3        1 MOL1        -0.1409
      12    H8      20.944585   19.277432   22.920219 H          1 MOL1         0.0960
      13    H9      19.729125   18.026491   23.225519 H          1 MOL1         0.0960
      14    C5      19.203452   19.991338   24.005682 C.3        1 MOL1        -0.1409
      15    H10     19.210632   21.026486   23.637079 H          1 MOL1         0.0960
      16    H11     18.146228   19.714306   24.119568 H          1 MOL1         0.0960
      17    C6      19.894374   19.969149   25.393205 C.3        1 MOL1        -0.1450
      18    H12     19.390790   20.707275   26.031503 H          1 MOL1         0.0960
      19    H13     20.935956   20.306167   25.307218 H          1 MOL1         0.0960
      20    C7      19.837601   18.607035   26.115544 C.3        1 MOL1         0.0172
      21    H14     19.975939   18.767212   27.188252 H          1 MOL1         0.0934
      22    H15     18.857000   18.147580   25.965158 H          1 MOL1         0.0934
      23    N1      20.904710   17.623868   25.674968 N.4        1 MOL1        -0.5956
      24    H16     20.839142   17.414499   24.674991 H          1 MOL1         0.3624
      25    H17     20.830498   16.732348   26.177085 H          1 MOL1         0.3624
      26    H18     21.848184   17.985906   25.847813 H          1 MOL1         0.3624
@<TRIPOS>BOND
    1     1     2    1
    2     1     3    1
    3     1     4    1
    4     1     5    1
    5     5     6    1
    6     5     7    1
    7     5     8    1
    8     8     9    1
    9     8    10    1
   10     8    11    1
   11    11    12    1
   12    11    13    1
   13    11    14    1
   14    14    15    1
   15    14    16    1
   16    14    17    1
   17    17    18    1
   18    17    19    1
   19    17    20    1
   20    20    21    1
   21    20    22    1
   22    20    23    1
   23    23    24    1
   24    23    25    1
   25    23    26    1
@<TRIPOS>SUBSTRUCTURE
       1 MOL1            1 RESIDUE      1      MOL     
@<SCITEGIC>MOL_PROPERTY
VM2 Rank
SciTegic.value.IntegerValue
115

@<SCITEGIC>MOL_PROPERTY
Conf_Id
SciTegic.value.IntegerValue
1263

@<SCITEGIC>MOL_PROPERTY
Probability
SciTegic.value.DoubleValue
0.02

@<SCITEGIC>MOL_PROPERTY
Sum Probability
SciTegic.value.DoubleValue
99.37

@<SCITEGIC>MOL_PROPERTY
Delta G
SciTegic.value.DoubleValue
3.547

@<SCITEGIC>MOL_PROPERTY
G
SciTegic.value.DoubleValue
51.809

@<SCITEGIC>MOL_PROPERTY
E
SciTegic.value.DoubleValue
19.180

@<SCITEGIC>MOL_PROPERTY
-TS
SciTegic.value.DoubleValue
32.629

@<SCITEGIC>MOL_PROPERTY
U+W
SciTegic.value.DoubleValue
-2.282

@<SCITEGIC>MOL_PROPERTY
U
SciTegic.value.DoubleValue
51.554

@<SCITEGIC>MOL_PROPERTY
W
SciTegic.value.DoubleValue
-53.837

@<SCITEGIC>MOL_PROPERTY
W(PB)
SciTegic.value.DoubleValue
-56.124

@<SCITEGIC>MOL_PROPERTY
W(SA)
SciTegic.value.DoubleValue
2.288

@<SCITEGIC>MOL_PROPERTY
Valence
SciTegic.value.DoubleValue
4.248

@<SCITEGIC>MOL_PROPERTY
Coulomb
SciTegic.value.DoubleValue
46.645

@<SCITEGIC>MOL_PROPERTY
VdW
SciTegic.value.DoubleValue
0.661

@<SCITEGIC>MOL_PROPERTY
VdW6
SciTegic.value.DoubleValue
-7.943

@<SCITEGIC>MOL_PROPERTY
VdW12
SciTegic.value.DoubleValue
8.604

@<SCITEGIC>MOL_PROPERTY
Bond
SciTegic.value.DoubleValue
0.222

@<SCITEGIC>MOL_PROPERTY
Angle
SciTegic.value.DoubleValue
1.189

@<SCITEGIC>MOL_PROPERTY
Pdih
SciTegic.value.DoubleValue
2.838

@<SCITEGIC>MOL_PROPERTY
Idih
SciTegic.value.DoubleValue
0.000

@<SCITEGIC>MOL_PROPERTY
Tether
SciTegic.value.DoubleValue
0.000

@<TRIPOS>MOLECULE
guest-s14_vm2.mol2 : vm2 ligand conformer 116
          26          25           1
SMALL
USER_CHARGES
 
@<TRIPOS>ATOM
       1    C1      19.613394   20.335923   20.684405 C.3        1 MOL1        -0.2400
       2    H1      20.298245   20.721256   21.449731 H          1 MOL1         0.0971
       3    H2      19.644489   21.032665   19.836789 H          1 MOL1         0.0971
       4    H3      18.593350   20.345197   21.089707 H          1 MOL1         0.0971
       5    C2      20.020444   18.916924   20.231259 C.3        1 MOL1        -0.1385
       6    H4      21.066261   18.928303   19.893831 H          1 MOL1         0.0960
       7    H5      19.420487   18.642422   19.352364 H          1 MOL1         0.0960
       8    C3      19.835506   17.822560   21.313387 C.3        1 MOL1        -0.1409
       9    H6      18.773987   17.732806   21.582041 H          1 MOL1         0.0960
      10    H7      20.107763   16.859922   20.858856 H          1 MOL1         0.0960
      11    C4      20.699515   18.016283   22.586876 C.3        1 MOL1        -0.1409
      12    H8      21.626139   18.550160   22.334947 H          1 MOL1         0.0960
      13    H9      21.008734   17.026483   22.950354 H          1 MOL1         0.0960
      14    C5      19.952837   18.739080   23.734765 C.3        1 MOL1        -0.1409
      15    H10     19.600205   19.722661   23.402474 H          1 MOL1         0.0960
      16    H11     19.059487   18.159183   24.001957 H          1 MOL1         0.0960
      17    C6      20.853298   18.915715   24.980206 C.3        1 MOL1        -0.1450
      18    H12     21.761819   19.463570   24.696672 H          1 MOL1         0.0960
      19    H13     21.181263   17.935227   25.350391 H          1 MOL1         0.0960
      20    C7      20.153978   19.686914   26.116219 C.3        1 MOL1         0.0172
      21    H14     20.863412   19.854056   26.931281 H          1 MOL1         0.0934
      22    H15     19.820845   20.661379   25.749009 H          1 MOL1         0.0934
      23    N1      18.952029   18.965599   26.693883 N.4        1 MOL1        -0.5956
      24    H16     18.517882   19.498648   27.455253 H          1 MOL1         0.3624
      25    H17     19.206012   18.049233   27.077004 H          1 MOL1         0.3624
      26    H18     18.227500   18.808343   25.986625 H          1 MOL1         0.3624
@<TRIPOS>BOND
    1     1     2    1
    2     1     3    1
    3     1     4    1
    4     1     5    1
    5     5     6    1
    6     5     7    1
    7     5     8    1
    8     8     9    1
    9     8    10    1
   10     8    11    1
   11    11    12    1
   12    11    13    1
   13    11    14    1
   14    14    15    1
   15    14    16    1
   16    14    17    1
   17    17    18    1
   18    17    19    1
   19    17    20    1
   20    20    21    1
   21    20    22    1
   22    20    23    1
   23    23    24    1
   24    23    25    1
   25    23    26    1
@<TRIPOS>SUBSTRUCTURE
       1 MOL1            1 RESIDUE      1      MOL     
@<SCITEGIC>MOL_PROPERTY
VM2 Rank
SciTegic.value.IntegerValue
116

@<SCITEGIC>MOL_PROPERTY
Conf_Id
SciTegic.value.IntegerValue
569

@<SCITEGIC>MOL_PROPERTY
Probability
SciTegic.value.DoubleValue
0.02

@<SCITEGIC>MOL_PROPERTY
Sum Probability
SciTegic.value.DoubleValue
99.39

@<SCITEGIC>MOL_PROPERTY
Delta G
SciTegic.value.DoubleValue
3.553

@<SCITEGIC>MOL_PROPERTY
G
SciTegic.value.DoubleValue
51.815

@<SCITEGIC>MOL_PROPERTY
E
SciTegic.value.DoubleValue
19.009

@<SCITEGIC>MOL_PROPERTY
-TS
SciTegic.value.DoubleValue
32.805

@<SCITEGIC>MOL_PROPERTY
U+W
SciTegic.value.DoubleValue
-2.452

@<SCITEGIC>MOL_PROPERTY
U
SciTegic.value.DoubleValue
51.297

@<SCITEGIC>MOL_PROPERTY
W
SciTegic.value.DoubleValue
-53.749

@<SCITEGIC>MOL_PROPERTY
W(PB)
SciTegic.value.DoubleValue
-56.017

@<SCITEGIC>MOL_PROPERTY
W(SA)
SciTegic.value.DoubleValue
2.267

@<SCITEGIC>MOL_PROPERTY
Valence
SciTegic.value.DoubleValue
5.228

@<SCITEGIC>MOL_PROPERTY
Coulomb
SciTegic.value.DoubleValue
45.276

@<SCITEGIC>MOL_PROPERTY
VdW
SciTegic.value.DoubleValue
0.793

@<SCITEGIC>MOL_PROPERTY
VdW6
SciTegic.value.DoubleValue
-7.860

@<SCITEGIC>MOL_PROPERTY
VdW12
SciTegic.value.DoubleValue
8.653

@<SCITEGIC>MOL_PROPERTY
Bond
SciTegic.value.DoubleValue
0.234

@<SCITEGIC>MOL_PROPERTY
Angle
SciTegic.value.DoubleValue
1.197

@<SCITEGIC>MOL_PROPERTY
Pdih
SciTegic.value.DoubleValue
3.797

@<SCITEGIC>MOL_PROPERTY
Idih
SciTegic.value.DoubleValue
0.000

@<SCITEGIC>MOL_PROPERTY
Tether
SciTegic.value.DoubleValue
0.000

@<TRIPOS>MOLECULE
guest-s14_vm2.mol2 : vm2 ligand conformer 117
          26          25           1
SMALL
USER_CHARGES
 
@<TRIPOS>ATOM
       1    C1      18.843017   18.088424   20.348027 C.3        1 MOL1        -0.2400
       2    H1      18.125142   18.915990   20.278474 H          1 MOL1         0.0971
       3    H2      18.699478   17.445240   19.470154 H          1 MOL1         0.0971
       4    H3      18.597373   17.492868   21.235758 H          1 MOL1         0.0971
       5    C2      20.295199   18.615143   20.400176 C.3        1 MOL1        -0.1385
       6    H4      20.532689   19.092781   19.439310 H          1 MOL1         0.0960
       7    H5      20.991207   17.770992   20.503782 H          1 MOL1         0.0960
       8    C3      20.539694   19.637986   21.535935 C.3        1 MOL1        -0.1409
       9    H6      21.556392   20.040441   21.428009 H          1 MOL1         0.0960
      10    H7      19.855879   20.489690   21.416286 H          1 MOL1         0.0960
      11    C4      20.380749   19.035954   22.952693 C.3        1 MOL1        -0.1409
      12    H8      21.034707   18.158705   23.052186 H          1 MOL1         0.0960
      13    H9      19.347504   18.694739   23.082812 H          1 MOL1         0.0960
      14    C5      20.722522   20.067614   24.053893 C.3        1 MOL1        -0.1409
      15    H10     21.702352   20.513393   23.833528 H          1 MOL1         0.0960
      16    H11     19.996848   20.892086   24.020700 H          1 MOL1         0.0960
      17    C6      20.772509   19.482017   25.488368 C.3        1 MOL1        -0.1450
      18    H12     21.095507   20.282454   26.167212 H          1 MOL1         0.0960
      19    H13     21.541701   18.701223   25.555998 H          1 MOL1         0.0960
      20    C7      19.423871   18.941564   26.007451 C.3        1 MOL1         0.0172
      21    H14     19.442953   18.928152   27.100591 H          1 MOL1         0.0934
      22    H15     18.612358   19.602174   25.690688 H          1 MOL1         0.0934
      23    N1      19.103439   17.530296   25.554458 N.4        1 MOL1        -0.5956
      24    H16     19.808101   16.859471   25.877874 H          1 MOL1         0.3624
      25    H17     19.062991   17.458490   24.534067 H          1 MOL1         0.3624
      26    H18     18.198656   17.210942   25.917560 H          1 MOL1         0.3624
@<TRIPOS>BOND
    1     1     2    1
    2     1     3    1
    3     1     4    1
    4     1     5    1
    5     5     6    1
    6     5     7    1
    7     5     8    1
    8     8     9    1
    9     8    10    1
   10     8    11    1
   11    11    12    1
   12    11    13    1
   13    11    14    1
   14    14    15    1
   15    14    16    1
   16    14    17    1
   17    17    18    1
   18    17    19    1
   19    17    20    1
   20    20    21    1
   21    20    22    1
   22    20    23    1
   23    23    24    1
   24    23    25    1
   25    23    26    1
@<TRIPOS>SUBSTRUCTURE
       1 MOL1            1 RESIDUE      1      MOL     
@<SCITEGIC>MOL_PROPERTY
VM2 Rank
SciTegic.value.IntegerValue
117

@<SCITEGIC>MOL_PROPERTY
Conf_Id
SciTegic.value.IntegerValue
365

@<SCITEGIC>MOL_PROPERTY
Probability
SciTegic.value.DoubleValue
0.02

@<SCITEGIC>MOL_PROPERTY
Sum Probability
SciTegic.value.DoubleValue
99.41

@<SCITEGIC>MOL_PROPERTY
Delta G
SciTegic.value.DoubleValue
3.565

@<SCITEGIC>MOL_PROPERTY
G
SciTegic.value.DoubleValue
51.827

@<SCITEGIC>MOL_PROPERTY
E
SciTegic.value.DoubleValue
19.218

@<SCITEGIC>MOL_PROPERTY
-TS
SciTegic.value.DoubleValue
32.609

@<SCITEGIC>MOL_PROPERTY
U+W
SciTegic.value.DoubleValue
-2.244

@<SCITEGIC>MOL_PROPERTY
U
SciTegic.value.DoubleValue
51.693

@<SCITEGIC>MOL_PROPERTY
W
SciTegic.value.DoubleValue
-53.937

@<SCITEGIC>MOL_PROPERTY
W(PB)
SciTegic.value.DoubleValue
-56.183

@<SCITEGIC>MOL_PROPERTY
W(SA)
SciTegic.value.DoubleValue
2.246

@<SCITEGIC>MOL_PROPERTY
Valence
SciTegic.value.DoubleValue
4.262

@<SCITEGIC>MOL_PROPERTY
Coulomb
SciTegic.value.DoubleValue
46.778

@<SCITEGIC>MOL_PROPERTY
VdW
SciTegic.value.DoubleValue
0.653

@<SCITEGIC>MOL_PROPERTY
VdW6
SciTegic.value.DoubleValue
-7.961

@<SCITEGIC>MOL_PROPERTY
VdW12
SciTegic.value.DoubleValue
8.614

@<SCITEGIC>MOL_PROPERTY
Bond
SciTegic.value.DoubleValue
0.225

@<SCITEGIC>MOL_PROPERTY
Angle
SciTegic.value.DoubleValue
1.192

@<SCITEGIC>MOL_PROPERTY
Pdih
SciTegic.value.DoubleValue
2.845

@<SCITEGIC>MOL_PROPERTY
Idih
SciTegic.value.DoubleValue
0.000

@<SCITEGIC>MOL_PROPERTY
Tether
SciTegic.value.DoubleValue
0.000

@<TRIPOS>MOLECULE
guest-s14_vm2.mol2 : vm2 ligand conformer 118
          26          25           1
SMALL
USER_CHARGES
 
@<TRIPOS>ATOM
       1    C1      19.398980   20.564760   20.640257 C.3        1 MOL1        -0.2400
       2    H1      20.111818   20.607181   19.806433 H          1 MOL1         0.0971
       3    H2      18.396995   20.760656   20.236953 H          1 MOL1         0.0971
       4    H3      19.644156   21.373236   21.341283 H          1 MOL1         0.0971
       5    C2      19.445236   19.190482   21.340749 C.3        1 MOL1        -0.1385
       6    H4      19.165002   18.406054   20.623971 H          1 MOL1         0.0960
       7    H5      18.692172   19.171775   22.138784 H          1 MOL1         0.0960
       8    C3      20.850259   18.891188   21.915115 C.3        1 MOL1        -0.1409
       9    H6      21.582160   18.941367   21.097166 H          1 MOL1         0.0960
      10    H7      21.147998   19.673084   22.624658 H          1 MOL1         0.0960
      11    C4      20.964497   17.497182   22.581528 C.3        1 MOL1        -0.1409
      12    H8      22.004722   17.346203   22.901384 H          1 MOL1         0.0960
      13    H9      20.774603   16.728502   21.819743 H          1 MOL1         0.0960
      14    C5      20.027042   17.233681   23.791327 C.3        1 MOL1        -0.1409
      15    H10     18.973978   17.264986   23.481542 H          1 MOL1         0.0960
      16    H11     20.202136   16.199829   24.119766 H          1 MOL1         0.0960
      17    C6      20.256479   18.163827   25.009683 C.3        1 MOL1        -0.1450
      18    H12     21.328386   18.369560   25.129851 H          1 MOL1         0.0960
      19    H13     19.939363   17.633388   25.917454 H          1 MOL1         0.0960
      20    C7      19.465250   19.483473   24.927448 C.3        1 MOL1         0.0172
      21    H14     19.761787   20.048282   24.041783 H          1 MOL1         0.0934
      22    H15     18.396716   19.265097   24.850991 H          1 MOL1         0.0934
      23    N1      19.673258   20.374406   26.134893 N.4        1 MOL1        -0.5956
      24    H16     19.135600   21.245088   26.063472 H          1 MOL1         0.3624
      25    H17     20.657041   20.639208   26.249399 H          1 MOL1         0.3624
      26    H18     19.381791   19.914350   27.003528 H          1 MOL1         0.3624
@<TRIPOS>BOND
    1     1     2    1
    2     1     3    1
    3     1     4    1
    4     1     5    1
    5     5     6    1
    6     5     7    1
    7     5     8    1
    8     8     9    1
    9     8    10    1
   10     8    11    1
   11    11    12    1
   12    11    13    1
   13    11    14    1
   14    14    15    1
   15    14    16    1
   16    14    17    1
   17    17    18    1
   18    17    19    1
   19    17    20    1
   20    20    21    1
   21    20    22    1
   22    20    23    1
   23    23    24    1
   24    23    25    1
   25    23    26    1
@<TRIPOS>SUBSTRUCTURE
       1 MOL1            1 RESIDUE      1      MOL     
@<SCITEGIC>MOL_PROPERTY
VM2 Rank
SciTegic.value.IntegerValue
118

@<SCITEGIC>MOL_PROPERTY
Conf_Id
SciTegic.value.IntegerValue
1229

@<SCITEGIC>MOL_PROPERTY
Probability
SciTegic.value.DoubleValue
0.02

@<SCITEGIC>MOL_PROPERTY
Sum Probability
SciTegic.value.DoubleValue
99.43

@<SCITEGIC>MOL_PROPERTY
Delta G
SciTegic.value.DoubleValue
3.579

@<SCITEGIC>MOL_PROPERTY
G
SciTegic.value.DoubleValue
51.840

@<SCITEGIC>MOL_PROPERTY
E
SciTegic.value.DoubleValue
18.628

@<SCITEGIC>MOL_PROPERTY
-TS
SciTegic.value.DoubleValue
33.212

@<SCITEGIC>MOL_PROPERTY
U+W
SciTegic.value.DoubleValue
-2.834

@<SCITEGIC>MOL_PROPERTY
U
SciTegic.value.DoubleValue
51.403

@<SCITEGIC>MOL_PROPERTY
W
SciTegic.value.DoubleValue
-54.237

@<SCITEGIC>MOL_PROPERTY
W(PB)
SciTegic.value.DoubleValue
-56.493

@<SCITEGIC>MOL_PROPERTY
W(SA)
SciTegic.value.DoubleValue
2.257

@<SCITEGIC>MOL_PROPERTY
Valence
SciTegic.value.DoubleValue
5.068

@<SCITEGIC>MOL_PROPERTY
Coulomb
SciTegic.value.DoubleValue
46.079

@<SCITEGIC>MOL_PROPERTY
VdW
SciTegic.value.DoubleValue
0.255

@<SCITEGIC>MOL_PROPERTY
VdW6
SciTegic.value.DoubleValue
-8.819

@<SCITEGIC>MOL_PROPERTY
VdW12
SciTegic.value.DoubleValue
9.075

@<SCITEGIC>MOL_PROPERTY
Bond
SciTegic.value.DoubleValue
0.244

@<SCITEGIC>MOL_PROPERTY
Angle
SciTegic.value.DoubleValue
1.724

@<SCITEGIC>MOL_PROPERTY
Pdih
SciTegic.value.DoubleValue
3.100

@<SCITEGIC>MOL_PROPERTY
Idih
SciTegic.value.DoubleValue
0.000

@<SCITEGIC>MOL_PROPERTY
Tether
SciTegic.value.DoubleValue
0.000

@<TRIPOS>MOLECULE
guest-s14_vm2.mol2 : vm2 ligand conformer 119
          26          25           1
SMALL
USER_CHARGES
 
@<TRIPOS>ATOM
       1    C1      18.865636   20.212254   20.622011 C.3        1 MOL1        -0.2400
       2    H1      17.993804   20.282907   21.285411 H          1 MOL1         0.0971
       3    H2      19.096450   21.222536   20.259991 H          1 MOL1         0.0971
       4    H3      18.586848   19.599346   19.754934 H          1 MOL1         0.0971
       5    C2      20.077851   19.608445   21.361892 C.3        1 MOL1        -0.1385
       6    H4      20.352280   20.268748   22.194360 H          1 MOL1         0.0960
       7    H5      20.942017   19.579921   20.683636 H          1 MOL1         0.0960
       8    C3      19.776393   18.181868   21.879160 C.3        1 MOL1        -0.1409
       9    H6      18.908187   18.193572   22.549636 H          1 MOL1         0.0960
      10    H7      19.482019   17.554041   21.026861 H          1 MOL1         0.0960
      11    C4      20.981850   17.508748   22.582152 C.3        1 MOL1        -0.1409
      12    H8      21.798076   17.404608   21.854021 H          1 MOL1         0.0960
      13    H9      20.698643   16.483583   22.857839 H          1 MOL1         0.0960
      14    C5      21.534627   18.229735   23.841710 C.3        1 MOL1        -0.1409
      15    H10     22.401110   17.652631   24.193190 H          1 MOL1         0.0960
      16    H11     21.932232   19.219434   23.580378 H          1 MOL1         0.0960
      17    C6      20.533413   18.346772   25.019027 C.3        1 MOL1        -0.1450
      18    H12     21.102914   18.402209   25.956349 H          1 MOL1         0.0960
      19    H13     19.919522   17.438593   25.083037 H          1 MOL1         0.0960
      20    C7      19.633668   19.594712   24.933145 C.3        1 MOL1         0.0172
      21    H14     20.255834   20.493487   24.912858 H          1 MOL1         0.0934
      22    H15     19.039470   19.570938   24.017880 H          1 MOL1         0.0934
      23    N1      18.677562   19.716466   26.101903 N.4        1 MOL1        -0.5956
      24    H16     18.090796   20.554694   26.028819 H          1 MOL1         0.3624
      25    H17     19.174279   19.777261   26.996727 H          1 MOL1         0.3624
      26    H18     18.044132   18.912645   26.162705 H          1 MOL1         0.3624
@<TRIPOS>BOND
    1     1     2    1
    2     1     3    1
    3     1     4    1
    4     1     5    1
    5     5     6    1
    6     5     7    1
    7     5     8    1
    8     8     9    1
    9     8    10    1
   10     8    11    1
   11    11    12    1
   12    11    13    1
   13    11    14    1
   14    14    15    1
   15    14    16    1
   16    14    17    1
   17    17    18    1
   18    17    19    1
   19    17    20    1
   20    20    21    1
   21    20    22    1
   22    20    23    1
   23    23    24    1
   24    23    25    1
   25    23    26    1
@<TRIPOS>SUBSTRUCTURE
       1 MOL1            1 RESIDUE      1      MOL     
@<SCITEGIC>MOL_PROPERTY
VM2 Rank
SciTegic.value.IntegerValue
119

@<SCITEGIC>MOL_PROPERTY
Conf_Id
SciTegic.value.IntegerValue
1231

@<SCITEGIC>MOL_PROPERTY
Probability
SciTegic.value.DoubleValue
0.02

@<SCITEGIC>MOL_PROPERTY
Sum Probability
SciTegic.value.DoubleValue
99.44

@<SCITEGIC>MOL_PROPERTY
Delta G
SciTegic.value.DoubleValue
3.595

@<SCITEGIC>MOL_PROPERTY
G
SciTegic.value.DoubleValue
51.857

@<SCITEGIC>MOL_PROPERTY
E
SciTegic.value.DoubleValue
18.645

@<SCITEGIC>MOL_PROPERTY
-TS
SciTegic.value.DoubleValue
33.212

@<SCITEGIC>MOL_PROPERTY
U+W
SciTegic.value.DoubleValue
-2.817

@<SCITEGIC>MOL_PROPERTY
U
SciTegic.value.DoubleValue
51.402

@<SCITEGIC>MOL_PROPERTY
W
SciTegic.value.DoubleValue
-54.219

@<SCITEGIC>MOL_PROPERTY
W(PB)
SciTegic.value.DoubleValue
-56.462

@<SCITEGIC>MOL_PROPERTY
W(SA)
SciTegic.value.DoubleValue
2.243

@<SCITEGIC>MOL_PROPERTY
Valence
SciTegic.value.DoubleValue
5.069

@<SCITEGIC>MOL_PROPERTY
Coulomb
SciTegic.value.DoubleValue
46.079

@<SCITEGIC>MOL_PROPERTY
VdW
SciTegic.value.DoubleValue
0.255

@<SCITEGIC>MOL_PROPERTY
VdW6
SciTegic.value.DoubleValue
-8.819

@<SCITEGIC>MOL_PROPERTY
VdW12
SciTegic.value.DoubleValue
9.074

@<SCITEGIC>MOL_PROPERTY
Bond
SciTegic.value.DoubleValue
0.244

@<SCITEGIC>MOL_PROPERTY
Angle
SciTegic.value.DoubleValue
1.725

@<SCITEGIC>MOL_PROPERTY
Pdih
SciTegic.value.DoubleValue
3.099

@<SCITEGIC>MOL_PROPERTY
Idih
SciTegic.value.DoubleValue
0.000

@<SCITEGIC>MOL_PROPERTY
Tether
SciTegic.value.DoubleValue
0.000

@<TRIPOS>MOLECULE
guest-s14_vm2.mol2 : vm2 ligand conformer 120
          26          25           1
SMALL
USER_CHARGES
 
@<TRIPOS>ATOM
       1    C1      18.757970   19.228899   19.940794 C.3        1 MOL1        -0.2400
       2    H1      19.353935   19.685253   19.139675 H          1 MOL1         0.0971
       3    H2      18.070894   18.507257   19.480158 H          1 MOL1         0.0971
       4    H3      18.154369   20.017115   20.409388 H          1 MOL1         0.0971
       5    C2      19.663532   18.533164   20.978976 C.3        1 MOL1        -0.1385
       6    H4      20.227486   17.729102   20.485840 H          1 MOL1         0.0960
       7    H5      19.035123   18.052278   21.738021 H          1 MOL1         0.0960
       8    C3      20.649397   19.530182   21.634543 C.3        1 MOL1        -0.1409
       9    H6      21.274556   19.962431   20.840954 H          1 MOL1         0.0960
      10    H7      20.102934   20.372066   22.081409 H          1 MOL1         0.0960
      11    C4      21.579741   18.877300   22.690054 C.3        1 MOL1        -0.1409
      12    H8      22.562831   19.364025   22.626137 H          1 MOL1         0.0960
      13    H9      21.756665   17.821599   22.442332 H          1 MOL1         0.0960
      14    C5      21.090311   19.007763   24.155553 C.3        1 MOL1        -0.1409
      15    H10     21.858879   18.580530   24.814616 H          1 MOL1         0.0960
      16    H11     21.019007   20.072080   24.416892 H          1 MOL1         0.0960
      17    C6      19.739886   18.307540   24.441132 C.3        1 MOL1        -0.1450
      18    H12     19.777201   17.275732   24.067515 H          1 MOL1         0.0960
      19    H13     18.928951   18.814926   23.903703 H          1 MOL1         0.0960
      20    C7      19.398734   18.270923   25.943199 C.3        1 MOL1         0.0172
      21    H14     18.475387   17.704567   26.092240 H          1 MOL1         0.0934
      22    H15     20.199976   17.766941   26.490378 H          1 MOL1         0.0934
      23    N1      19.201429   19.643229   26.556749 N.4        1 MOL1        -0.5956
      24    H16     18.966145   19.584307   27.553469 H          1 MOL1         0.3624
      25    H17     18.442532   20.159168   26.099830 H          1 MOL1         0.3624
      26    H18     20.046858   20.217296   26.481496 H          1 MOL1         0.3624
@<TRIPOS>BOND
    1     1     2    1
    2     1     3    1
    3     1     4    1
    4     1     5    1
    5     5     6    1
    6     5     7    1
    7     5     8    1
    8     8     9    1
    9     8    10    1
   10     8    11    1
   11    11    12    1
   12    11    13    1
   13    11    14    1
   14    14    15    1
   15    14    16    1
   16    14    17    1
   17    17    18    1
   18    17    19    1
   19    17    20    1
   20    20    21    1
   21    20    22    1
   22    20    23    1
   23    23    24    1
   24    23    25    1
   25    23    26    1
@<TRIPOS>SUBSTRUCTURE
       1 MOL1            1 RESIDUE      1      MOL     
@<SCITEGIC>MOL_PROPERTY
VM2 Rank
SciTegic.value.IntegerValue
120

@<SCITEGIC>MOL_PROPERTY
Conf_Id
SciTegic.value.IntegerValue
528

@<SCITEGIC>MOL_PROPERTY
Probability
SciTegic.value.DoubleValue
0.02

@<SCITEGIC>MOL_PROPERTY
Sum Probability
SciTegic.value.DoubleValue
99.46

@<SCITEGIC>MOL_PROPERTY
Delta G
SciTegic.value.DoubleValue
3.619

@<SCITEGIC>MOL_PROPERTY
G
SciTegic.value.DoubleValue
51.880

@<SCITEGIC>MOL_PROPERTY
E
SciTegic.value.DoubleValue
19.049

@<SCITEGIC>MOL_PROPERTY
-TS
SciTegic.value.DoubleValue
32.831

@<SCITEGIC>MOL_PROPERTY
U+W
SciTegic.value.DoubleValue
-2.413

@<SCITEGIC>MOL_PROPERTY
U
SciTegic.value.DoubleValue
51.464

@<SCITEGIC>MOL_PROPERTY
W
SciTegic.value.DoubleValue
-53.876

@<SCITEGIC>MOL_PROPERTY
W(PB)
SciTegic.value.DoubleValue
-56.138

@<SCITEGIC>MOL_PROPERTY
W(SA)
SciTegic.value.DoubleValue
2.261

@<SCITEGIC>MOL_PROPERTY
Valence
SciTegic.value.DoubleValue
5.277

@<SCITEGIC>MOL_PROPERTY
Coulomb
SciTegic.value.DoubleValue
45.445

@<SCITEGIC>MOL_PROPERTY
VdW
SciTegic.value.DoubleValue
0.741

@<SCITEGIC>MOL_PROPERTY
VdW6
SciTegic.value.DoubleValue
-7.943

@<SCITEGIC>MOL_PROPERTY
VdW12
SciTegic.value.DoubleValue
8.684

@<SCITEGIC>MOL_PROPERTY
Bond
SciTegic.value.DoubleValue
0.235

@<SCITEGIC>MOL_PROPERTY
Angle
SciTegic.value.DoubleValue
1.187

@<SCITEGIC>MOL_PROPERTY
Pdih
SciTegic.value.DoubleValue
3.855

@<SCITEGIC>MOL_PROPERTY
Idih
SciTegic.value.DoubleValue
0.000

@<SCITEGIC>MOL_PROPERTY
Tether
SciTegic.value.DoubleValue
0.000

@<TRIPOS>MOLECULE
guest-s14_vm2.mol2 : vm2 ligand conformer 121
          26          25           1
SMALL
USER_CHARGES
 
@<TRIPOS>ATOM
       1    C1      20.198049   18.771650   19.594825 C.3        1 MOL1        -0.2400
       2    H1      21.232864   19.069663   19.804188 H          1 MOL1         0.0971
       3    H2      20.217961   18.099343   18.727337 H          1 MOL1         0.0971
       4    H3      19.631666   19.668311   19.311587 H          1 MOL1         0.0971
       5    C2      19.552843   18.067313   20.809929 C.3        1 MOL1        -0.1385
       6    H4      20.155482   17.192998   21.093023 H          1 MOL1         0.0960
       7    H5      18.568986   17.678701   20.511920 H          1 MOL1         0.0960
       8    C3      19.369452   18.994925   22.035404 C.3        1 MOL1        -0.1409
       9    H6      18.747727   19.855049   21.751190 H          1 MOL1         0.0960
      10    H7      18.800222   18.447849   22.795491 H          1 MOL1         0.0960
      11    C4      20.709408   19.499086   22.631212 C.3        1 MOL1        -0.1409
      12    H8      21.207087   20.129751   21.882853 H          1 MOL1         0.0960
      13    H9      21.387325   18.654912   22.817847 H          1 MOL1         0.0960
      14    C5      20.537226   20.338668   23.923992 C.3        1 MOL1        -0.1409
      15    H10     21.333725   21.095268   23.949554 H          1 MOL1         0.0960
      16    H11     19.593906   20.901172   23.889913 H          1 MOL1         0.0960
      17    C6      20.626700   19.522501   25.238125 C.3        1 MOL1        -0.1450
      18    H12     20.573021   20.217308   26.086826 H          1 MOL1         0.0960
      19    H13     21.607872   19.033112   25.299100 H          1 MOL1         0.0960
      20    C7      19.518979   18.465146   25.389193 C.3        1 MOL1         0.0172
      21    H14     18.539279   18.942299   25.300583 H          1 MOL1         0.0934
      22    H15     19.614499   17.717754   24.597541 H          1 MOL1         0.0934
      23    N1      19.568342   17.739711   26.718321 N.4        1 MOL1        -0.5956
      24    H16     18.823967   17.038336   26.797734 H          1 MOL1         0.3624
      25    H17     19.457554   18.382963   27.508970 H          1 MOL1         0.3624
      26    H18     20.457751   17.247572   26.852180 H          1 MOL1         0.3624
@<TRIPOS>BOND
    1     1     2    1
    2     1     3    1
    3     1     4    1
    4     1     5    1
    5     5     6    1
    6     5     7    1
    7     5     8    1
    8     8     9    1
    9     8    10    1
   10     8    11    1
   11    11    12    1
   12    11    13    1
   13    11    14    1
   14    14    15    1
   15    14    16    1
   16    14    17    1
   17    17    18    1
   18    17    19    1
   19    17    20    1
   20    20    21    1
   21    20    22    1
   22    20    23    1
   23    23    24    1
   24    23    25    1
   25    23    26    1
@<TRIPOS>SUBSTRUCTURE
       1 MOL1            1 RESIDUE      1      MOL     
@<SCITEGIC>MOL_PROPERTY
VM2 Rank
SciTegic.value.IntegerValue
121

@<SCITEGIC>MOL_PROPERTY
Conf_Id
SciTegic.value.IntegerValue
436

@<SCITEGIC>MOL_PROPERTY
Probability
SciTegic.value.DoubleValue
0.02

@<SCITEGIC>MOL_PROPERTY
Sum Probability
SciTegic.value.DoubleValue
99.48

@<SCITEGIC>MOL_PROPERTY
Delta G
SciTegic.value.DoubleValue
3.620

@<SCITEGIC>MOL_PROPERTY
G
SciTegic.value.DoubleValue
51.881

@<SCITEGIC>MOL_PROPERTY
E
SciTegic.value.DoubleValue
19.217

@<SCITEGIC>MOL_PROPERTY
-TS
SciTegic.value.DoubleValue
32.665

@<SCITEGIC>MOL_PROPERTY
U+W
SciTegic.value.DoubleValue
-2.245

@<SCITEGIC>MOL_PROPERTY
U
SciTegic.value.DoubleValue
51.521

@<SCITEGIC>MOL_PROPERTY
W
SciTegic.value.DoubleValue
-53.766

@<SCITEGIC>MOL_PROPERTY
W(PB)
SciTegic.value.DoubleValue
-56.075

@<SCITEGIC>MOL_PROPERTY
W(SA)
SciTegic.value.DoubleValue
2.309

@<SCITEGIC>MOL_PROPERTY
Valence
SciTegic.value.DoubleValue
5.275

@<SCITEGIC>MOL_PROPERTY
Coulomb
SciTegic.value.DoubleValue
45.448

@<SCITEGIC>MOL_PROPERTY
VdW
SciTegic.value.DoubleValue
0.798

@<SCITEGIC>MOL_PROPERTY
VdW6
SciTegic.value.DoubleValue
-7.889

@<SCITEGIC>MOL_PROPERTY
VdW12
SciTegic.value.DoubleValue
8.686

@<SCITEGIC>MOL_PROPERTY
Bond
SciTegic.value.DoubleValue
0.249

@<SCITEGIC>MOL_PROPERTY
Angle
SciTegic.value.DoubleValue
1.289

@<SCITEGIC>MOL_PROPERTY
Pdih
SciTegic.value.DoubleValue
3.738

@<SCITEGIC>MOL_PROPERTY
Idih
SciTegic.value.DoubleValue
0.000

@<SCITEGIC>MOL_PROPERTY
Tether
SciTegic.value.DoubleValue
0.000

@<TRIPOS>MOLECULE
guest-s14_vm2.mol2 : vm2 ligand conformer 122
          26          25           1
SMALL
USER_CHARGES
 
@<TRIPOS>ATOM
       1    C1      21.373650   19.757411   20.432460 C.3        1 MOL1        -0.2400
       2    H1      22.061745   19.662464   19.582484 H          1 MOL1         0.0971
       3    H2      20.898490   20.745058   20.370626 H          1 MOL1         0.0971
       4    H3      21.975714   19.721435   21.348602 H          1 MOL1         0.0971
       5    C2      20.317400   18.629433   20.401047 C.3        1 MOL1        -0.1385
       6    H4      20.814788   17.654296   20.498335 H          1 MOL1         0.0960
       7    H5      19.830212   18.628715   19.415932 H          1 MOL1         0.0960
       8    C3      19.228973   18.773383   21.492159 C.3        1 MOL1        -0.1409
       9    H6      18.720779   19.740892   21.378221 H          1 MOL1         0.0960
      10    H7      18.465120   18.001497   21.324787 H          1 MOL1         0.0960
      11    C4      19.778325   18.638716   22.932637 C.3        1 MOL1        -0.1409
      12    H8      20.491541   19.449145   23.121009 H          1 MOL1         0.0960
      13    H9      20.322477   17.689082   23.028662 H          1 MOL1         0.0960
      14    C5      18.645252   18.698115   23.984481 C.3        1 MOL1        -0.1409
      15    H10     18.174725   19.690810   23.959640 H          1 MOL1         0.0960
      16    H11     17.861142   17.980800   23.705235 H          1 MOL1         0.0960
      17    C6      19.096576   18.377414   25.432444 C.3        1 MOL1        -0.1450
      18    H12     19.508066   17.360841   25.488351 H          1 MOL1         0.0960
      19    H13     18.202948   18.376018   26.070629 H          1 MOL1         0.0960
      20    C7      20.098893   19.386781   26.029852 C.3        1 MOL1         0.0172
      21    H14     19.826079   20.402373   25.730778 H          1 MOL1         0.0934
      22    H15     20.052763   19.330733   27.120829 H          1 MOL1         0.0934
      23    N1      21.541931   19.137748   25.635920 N.4        1 MOL1        -0.5956
      24    H16     22.174008   19.831527   26.050180 H          1 MOL1         0.3624
      25    H17     21.671312   19.177519   24.621191 H          1 MOL1         0.3624
      26    H18     21.865814   18.216051   25.946927 H          1 MOL1         0.3624
@<TRIPOS>BOND
    1     1     2    1
    2     1     3    1
    3     1     4    1
    4     1     5    1
    5     5     6    1
    6     5     7    1
    7     5     8    1
    8     8     9    1
    9     8    10    1
   10     8    11    1
   11    11    12    1
   12    11    13    1
   13    11    14    1
   14    14    15    1
   15    14    16    1
   16    14    17    1
   17    17    18    1
   18    17    19    1
   19    17    20    1
   20    20    21    1
   21    20    22    1
   22    20    23    1
   23    23    24    1
   24    23    25    1
   25    23    26    1
@<TRIPOS>SUBSTRUCTURE
       1 MOL1            1 RESIDUE      1      MOL     
@<SCITEGIC>MOL_PROPERTY
VM2 Rank
SciTegic.value.IntegerValue
122

@<SCITEGIC>MOL_PROPERTY
Conf_Id
SciTegic.value.IntegerValue
387

@<SCITEGIC>MOL_PROPERTY
Probability
SciTegic.value.DoubleValue
0.02

@<SCITEGIC>MOL_PROPERTY
Sum Probability
SciTegic.value.DoubleValue
99.50

@<SCITEGIC>MOL_PROPERTY
Delta G
SciTegic.value.DoubleValue
3.625

@<SCITEGIC>MOL_PROPERTY
G
SciTegic.value.DoubleValue
51.886

@<SCITEGIC>MOL_PROPERTY
E
SciTegic.value.DoubleValue
19.277

@<SCITEGIC>MOL_PROPERTY
-TS
SciTegic.value.DoubleValue
32.609

@<SCITEGIC>MOL_PROPERTY
U+W
SciTegic.value.DoubleValue
-2.185

@<SCITEGIC>MOL_PROPERTY
U
SciTegic.value.DoubleValue
51.693

@<SCITEGIC>MOL_PROPERTY
W
SciTegic.value.DoubleValue
-53.877

@<SCITEGIC>MOL_PROPERTY
W(PB)
SciTegic.value.DoubleValue
-56.146

@<SCITEGIC>MOL_PROPERTY
W(SA)
SciTegic.value.DoubleValue
2.268

@<SCITEGIC>MOL_PROPERTY
Valence
SciTegic.value.DoubleValue
4.262

@<SCITEGIC>MOL_PROPERTY
Coulomb
SciTegic.value.DoubleValue
46.777

@<SCITEGIC>MOL_PROPERTY
VdW
SciTegic.value.DoubleValue
0.653

@<SCITEGIC>MOL_PROPERTY
VdW6
SciTegic.value.DoubleValue
-7.961

@<SCITEGIC>MOL_PROPERTY
VdW12
SciTegic.value.DoubleValue
8.615

@<SCITEGIC>MOL_PROPERTY
Bond
SciTegic.value.DoubleValue
0.225

@<SCITEGIC>MOL_PROPERTY
Angle
SciTegic.value.DoubleValue
1.192

@<SCITEGIC>MOL_PROPERTY
Pdih
SciTegic.value.DoubleValue
2.845

@<SCITEGIC>MOL_PROPERTY
Idih
SciTegic.value.DoubleValue
0.000

@<SCITEGIC>MOL_PROPERTY
Tether
SciTegic.value.DoubleValue
0.000

@<TRIPOS>MOLECULE
guest-s14_vm2.mol2 : vm2 ligand conformer 123
          26          25           1
SMALL
USER_CHARGES
 
@<TRIPOS>ATOM
       1    C1      20.133274   19.512752   19.662370 C.3        1 MOL1        -0.2400
       2    H1      19.203128   18.936850   19.584484 H          1 MOL1         0.0971
       3    H2      19.873282   20.565561   19.832663 H          1 MOL1         0.0971
       4    H3      20.642971   19.446172   18.692466 H          1 MOL1         0.0971
       5    C2      21.045123   18.975969   20.789298 C.3        1 MOL1        -0.1385
       6    H4      22.010001   19.499709   20.738980 H          1 MOL1         0.0960
       7    H5      21.263528   17.912997   20.615650 H          1 MOL1         0.0960
       8    C3      20.453702   19.165558   22.207329 C.3        1 MOL1        -0.1409
       9    H6      21.233951   18.900286   22.931610 H          1 MOL1         0.0960
      10    H7      20.217486   20.226361   22.368138 H          1 MOL1         0.0960
      11    C4      19.198422   18.298097   22.474172 C.3        1 MOL1        -0.1409
      12    H8      19.467030   17.235801   22.394146 H          1 MOL1         0.0960
      13    H9      18.451590   18.483419   21.691940 H          1 MOL1         0.0960
      14    C5      18.517631   18.555625   23.843770 C.3        1 MOL1        -0.1409
      15    H10     18.143835   19.587932   23.890897 H          1 MOL1         0.0960
      16    H11     17.626450   17.914850   23.895545 H          1 MOL1         0.0960
      17    C6      19.400267   18.253825   25.081114 C.3        1 MOL1        -0.1450
      18    H12     20.049250   17.390856   24.881172 H          1 MOL1         0.0960
      19    H13     18.746618   17.963558   25.914481 H          1 MOL1         0.0960
      20    C7      20.240075   19.464808   25.532581 C.3        1 MOL1         0.0172
      21    H14     20.905261   19.786142   24.729006 H          1 MOL1         0.0934
      22    H15     19.576653   20.298139   25.779164 H          1 MOL1         0.0934
      23    N1      21.092506   19.172366   26.750365 N.4        1 MOL1        -0.5956
      24    H16     20.523562   18.895511   27.557113 H          1 MOL1         0.3624
      25    H17     21.639670   19.990975   27.038183 H          1 MOL1         0.3624
      26    H18     21.759383   18.413236   26.576888 H          1 MOL1         0.3624
@<TRIPOS>BOND
    1     1     2    1
    2     1     3    1
    3     1     4    1
    4     1     5    1
    5     5     6    1
    6     5     7    1
    7     5     8    1
    8     8     9    1
    9     8    10    1
   10     8    11    1
   11    11    12    1
   12    11    13    1
   13    11    14    1
   14    14    15    1
   15    14    16    1
   16    14    17    1
   17    17    18    1
   18    17    19    1
   19    17    20    1
   20    20    21    1
   21    20    22    1
   22    20    23    1
   23    23    24    1
   24    23    25    1
   25    23    26    1
@<TRIPOS>SUBSTRUCTURE
       1 MOL1            1 RESIDUE      1      MOL     
@<SCITEGIC>MOL_PROPERTY
VM2 Rank
SciTegic.value.IntegerValue
123

@<SCITEGIC>MOL_PROPERTY
Conf_Id
SciTegic.value.IntegerValue
520

@<SCITEGIC>MOL_PROPERTY
Probability
SciTegic.value.DoubleValue
0.02

@<SCITEGIC>MOL_PROPERTY
Sum Probability
SciTegic.value.DoubleValue
99.51

@<SCITEGIC>MOL_PROPERTY
Delta G
SciTegic.value.DoubleValue
3.641

@<SCITEGIC>MOL_PROPERTY
G
SciTegic.value.DoubleValue
51.902

@<SCITEGIC>MOL_PROPERTY
E
SciTegic.value.DoubleValue
19.157

@<SCITEGIC>MOL_PROPERTY
-TS
SciTegic.value.DoubleValue
32.746

@<SCITEGIC>MOL_PROPERTY
U+W
SciTegic.value.DoubleValue
-2.305

@<SCITEGIC>MOL_PROPERTY
U
SciTegic.value.DoubleValue
51.609

@<SCITEGIC>MOL_PROPERTY
W
SciTegic.value.DoubleValue
-53.914

@<SCITEGIC>MOL_PROPERTY
W(PB)
SciTegic.value.DoubleValue
-56.221

@<SCITEGIC>MOL_PROPERTY
W(SA)
SciTegic.value.DoubleValue
2.307

@<SCITEGIC>MOL_PROPERTY
Valence
SciTegic.value.DoubleValue
5.204

@<SCITEGIC>MOL_PROPERTY
Coulomb
SciTegic.value.DoubleValue
45.645

@<SCITEGIC>MOL_PROPERTY
VdW
SciTegic.value.DoubleValue
0.760

@<SCITEGIC>MOL_PROPERTY
VdW6
SciTegic.value.DoubleValue
-7.997

@<SCITEGIC>MOL_PROPERTY
VdW12
SciTegic.value.DoubleValue
8.758

@<SCITEGIC>MOL_PROPERTY
Bond
SciTegic.value.DoubleValue
0.240

@<SCITEGIC>MOL_PROPERTY
Angle
SciTegic.value.DoubleValue
1.456

@<SCITEGIC>MOL_PROPERTY
Pdih
SciTegic.value.DoubleValue
3.508

@<SCITEGIC>MOL_PROPERTY
Idih
SciTegic.value.DoubleValue
0.000

@<SCITEGIC>MOL_PROPERTY
Tether
SciTegic.value.DoubleValue
0.000

@<TRIPOS>MOLECULE
guest-s14_vm2.mol2 : vm2 ligand conformer 124
          26          25           1
SMALL
USER_CHARGES
 
@<TRIPOS>ATOM
       1    C1      19.591234   19.154790   19.644080 C.3        1 MOL1        -0.2400
       2    H1      19.497238   18.690040   18.654076 H          1 MOL1         0.0971
       3    H2      18.718731   19.803910   19.793691 H          1 MOL1         0.0971
       4    H3      20.489415   19.783990   19.627273 H          1 MOL1         0.0971
       5    C2      19.673067   18.071194   20.743484 C.3        1 MOL1        -0.1385
       6    H4      20.571501   17.456466   20.592853 H          1 MOL1         0.0960
       7    H5      18.815212   17.393311   20.632192 H          1 MOL1         0.0960
       8    C3      19.665111   18.645854   22.180926 C.3        1 MOL1        -0.1409
       9    H6      18.776149   19.276288   22.319707 H          1 MOL1         0.0960
      10    H7      19.568401   17.802512   22.876021 H          1 MOL1         0.0960
      11    C4      20.942485   19.448462   22.532437 C.3        1 MOL1        -0.1409
      12    H8      21.102065   20.231475   21.780497 H          1 MOL1         0.0960
      13    H9      21.816359   18.785289   22.472672 H          1 MOL1         0.0960
      14    C5      20.909582   20.133256   23.923683 C.3        1 MOL1        -0.1409
      15    H10     21.845654   20.697636   24.036472 H          1 MOL1         0.0960
      16    H11     20.105967   20.882075   23.956500 H          1 MOL1         0.0960
      17    C6      20.782734   19.165565   25.127272 C.3        1 MOL1        -0.1450
      18    H12     21.267385   19.625867   25.998620 H          1 MOL1         0.0960
      19    H13     21.329757   18.235382   24.923808 H          1 MOL1         0.0960
      20    C7      19.319708   18.857796   25.501988 C.3        1 MOL1         0.0172
      21    H14     18.803408   19.788109   25.753639 H          1 MOL1         0.0934
      22    H15     18.800605   18.398251   24.658894 H          1 MOL1         0.0934
      23    N1      19.197079   17.922083   26.687130 N.4        1 MOL1        -0.5956
      24    H16     18.216971   17.733419   26.924072 H          1 MOL1         0.3624
      25    H17     19.637405   18.310662   27.527550 H          1 MOL1         0.3624
      26    H18     19.640477   17.015605   26.506032 H          1 MOL1         0.3624
@<TRIPOS>BOND
    1     1     2    1
    2     1     3    1
    3     1     4    1
    4     1     5    1
    5     5     6    1
    6     5     7    1
    7     5     8    1
    8     8     9    1
    9     8    10    1
   10     8    11    1
   11    11    12    1
   12    11    13    1
   13    11    14    1
   14    14    15    1
   15    14    16    1
   16    14    17    1
   17    17    18    1
   18    17    19    1
   19    17    20    1
   20    20    21    1
   21    20    22    1
   22    20    23    1
   23    23    24    1
   24    23    25    1
   25    23    26    1
@<TRIPOS>SUBSTRUCTURE
       1 MOL1            1 RESIDUE      1      MOL     
@<SCITEGIC>MOL_PROPERTY
VM2 Rank
SciTegic.value.IntegerValue
124

@<SCITEGIC>MOL_PROPERTY
Conf_Id
SciTegic.value.IntegerValue
949

@<SCITEGIC>MOL_PROPERTY
Probability
SciTegic.value.DoubleValue
0.02

@<SCITEGIC>MOL_PROPERTY
Sum Probability
SciTegic.value.DoubleValue
99.53

@<SCITEGIC>MOL_PROPERTY
Delta G
SciTegic.value.DoubleValue
3.646

@<SCITEGIC>MOL_PROPERTY
G
SciTegic.value.DoubleValue
51.907

@<SCITEGIC>MOL_PROPERTY
E
SciTegic.value.DoubleValue
19.162

@<SCITEGIC>MOL_PROPERTY
-TS
SciTegic.value.DoubleValue
32.745

@<SCITEGIC>MOL_PROPERTY
U+W
SciTegic.value.DoubleValue
-2.300

@<SCITEGIC>MOL_PROPERTY
U
SciTegic.value.DoubleValue
51.609

@<SCITEGIC>MOL_PROPERTY
W
SciTegic.value.DoubleValue
-53.909

@<SCITEGIC>MOL_PROPERTY
W(PB)
SciTegic.value.DoubleValue
-56.179

@<SCITEGIC>MOL_PROPERTY
W(SA)
SciTegic.value.DoubleValue
2.270

@<SCITEGIC>MOL_PROPERTY
Valence
SciTegic.value.DoubleValue
5.204

@<SCITEGIC>MOL_PROPERTY
Coulomb
SciTegic.value.DoubleValue
45.645

@<SCITEGIC>MOL_PROPERTY
VdW
SciTegic.value.DoubleValue
0.760

@<SCITEGIC>MOL_PROPERTY
VdW6
SciTegic.value.DoubleValue
-7.997

@<SCITEGIC>MOL_PROPERTY
VdW12
SciTegic.value.DoubleValue
8.758

@<SCITEGIC>MOL_PROPERTY
Bond
SciTegic.value.DoubleValue
0.240

@<SCITEGIC>MOL_PROPERTY
Angle
SciTegic.value.DoubleValue
1.456

@<SCITEGIC>MOL_PROPERTY
Pdih
SciTegic.value.DoubleValue
3.508

@<SCITEGIC>MOL_PROPERTY
Idih
SciTegic.value.DoubleValue
0.000

@<SCITEGIC>MOL_PROPERTY
Tether
SciTegic.value.DoubleValue
0.000

@<TRIPOS>MOLECULE
guest-s14_vm2.mol2 : vm2 ligand conformer 125
          26          25           1
SMALL
USER_CHARGES
 
@<TRIPOS>ATOM
       1    C1      20.376531   20.298125   19.994861 C.3        1 MOL1        -0.2400
       2    H1      19.761298   19.954147   19.153199 H          1 MOL1         0.0971
       3    H2      19.866318   21.148092   20.466495 H          1 MOL1         0.0971
       4    H3      21.330053   20.660380   19.589157 H          1 MOL1         0.0971
       5    C2      20.613396   19.160694   21.010761 C.3        1 MOL1        -0.1385
       6    H4      21.265845   19.526147   21.812666 H          1 MOL1         0.0960
       7    H5      21.154809   18.341687   20.516956 H          1 MOL1         0.0960
       8    C3      19.280810   18.625993   21.588736 C.3        1 MOL1        -0.1409
       9    H6      18.699949   19.445188   22.034382 H          1 MOL1         0.0960
      10    H7      18.675939   18.245505   20.753990 H          1 MOL1         0.0960
      11    C4      19.467790   17.482066   22.619449 C.3        1 MOL1        -0.1409
      12    H8      20.380410   16.912391   22.396361 H          1 MOL1         0.0960
      13    H9      18.638797   16.771627   22.494959 H          1 MOL1         0.0960
      14    C5      19.471172   17.938172   24.101408 C.3        1 MOL1        -0.1409
      15    H10     18.508660   18.413697   24.332930 H          1 MOL1         0.0960
      16    H11     19.532540   17.043729   24.736856 H          1 MOL1         0.0960
      17    C6      20.629757   18.895626   24.470840 C.3        1 MOL1        -0.1450
      18    H12     20.505542   19.856800   23.956444 H          1 MOL1         0.0960
      19    H13     21.580896   18.467633   24.127669 H          1 MOL1         0.0960
      20    C7      20.727140   19.148558   25.987572 C.3        1 MOL1         0.0172
      21    H14     20.851703   18.197342   26.512035 H          1 MOL1         0.0934
      22    H15     21.601891   19.770354   26.196673 H          1 MOL1         0.0934
      23    N1      19.514403   19.849766   26.567373 N.4        1 MOL1        -0.5956
      24    H16     19.358123   20.763994   26.130732 H          1 MOL1         0.3624
      25    H17     19.614315   20.012149   27.575307 H          1 MOL1         0.3624
      26    H18     18.659611   19.300357   26.435297 H          1 MOL1         0.3624
@<TRIPOS>BOND
    1     1     2    1
    2     1     3    1
    3     1     4    1
    4     1     5    1
    5     5     6    1
    6     5     7    1
    7     5     8    1
    8     8     9    1
    9     8    10    1
   10     8    11    1
   11    11    12    1
   12    11    13    1
   13    11    14    1
   14    14    15    1
   15    14    16    1
   16    14    17    1
   17    17    18    1
   18    17    19    1
   19    17    20    1
   20    20    21    1
   21    20    22    1
   22    20    23    1
   23    23    24    1
   24    23    25    1
   25    23    26    1
@<TRIPOS>SUBSTRUCTURE
       1 MOL1            1 RESIDUE      1      MOL     
@<SCITEGIC>MOL_PROPERTY
VM2 Rank
SciTegic.value.IntegerValue
125

@<SCITEGIC>MOL_PROPERTY
Conf_Id
SciTegic.value.IntegerValue
247

@<SCITEGIC>MOL_PROPERTY
Probability
SciTegic.value.DoubleValue
0.02

@<SCITEGIC>MOL_PROPERTY
Sum Probability
SciTegic.value.DoubleValue
99.55

@<SCITEGIC>MOL_PROPERTY
Delta G
SciTegic.value.DoubleValue
3.649

@<SCITEGIC>MOL_PROPERTY
G
SciTegic.value.DoubleValue
51.910

@<SCITEGIC>MOL_PROPERTY
E
SciTegic.value.DoubleValue
19.079

@<SCITEGIC>MOL_PROPERTY
-TS
SciTegic.value.DoubleValue
32.831

@<SCITEGIC>MOL_PROPERTY
U+W
SciTegic.value.DoubleValue
-2.382

@<SCITEGIC>MOL_PROPERTY
U
SciTegic.value.DoubleValue
51.463

@<SCITEGIC>MOL_PROPERTY
W
SciTegic.value.DoubleValue
-53.846

@<SCITEGIC>MOL_PROPERTY
W(PB)
SciTegic.value.DoubleValue
-56.122

@<SCITEGIC>MOL_PROPERTY
W(SA)
SciTegic.value.DoubleValue
2.276

@<SCITEGIC>MOL_PROPERTY
Valence
SciTegic.value.DoubleValue
5.277

@<SCITEGIC>MOL_PROPERTY
Coulomb
SciTegic.value.DoubleValue
45.445

@<SCITEGIC>MOL_PROPERTY
VdW
SciTegic.value.DoubleValue
0.741

@<SCITEGIC>MOL_PROPERTY
VdW6
SciTegic.value.DoubleValue
-7.943

@<SCITEGIC>MOL_PROPERTY
VdW12
SciTegic.value.DoubleValue
8.685

@<SCITEGIC>MOL_PROPERTY
Bond
SciTegic.value.DoubleValue
0.235

@<SCITEGIC>MOL_PROPERTY
Angle
SciTegic.value.DoubleValue
1.187

@<SCITEGIC>MOL_PROPERTY
Pdih
SciTegic.value.DoubleValue
3.855

@<SCITEGIC>MOL_PROPERTY
Idih
SciTegic.value.DoubleValue
0.000

@<SCITEGIC>MOL_PROPERTY
Tether
SciTegic.value.DoubleValue
0.000

@<TRIPOS>MOLECULE
guest-s14_vm2.mol2 : vm2 ligand conformer 126
          26          25           1
SMALL
USER_CHARGES
 
@<TRIPOS>ATOM
       1    C1      19.192065   20.312754   20.734565 C.3        1 MOL1        -0.2400
       2    H1      19.436472   21.243880   20.207149 H          1 MOL1         0.0971
       3    H2      18.232608   19.950717   20.342893 H          1 MOL1         0.0971
       4    H3      19.052971   20.558138   21.793027 H          1 MOL1         0.0971
       5    C2      20.306749   19.262110   20.520992 C.3        1 MOL1        -0.1385
       6    H4      21.275732   19.659888   20.853295 H          1 MOL1         0.0960
       7    H5      20.405834   19.089608   19.440098 H          1 MOL1         0.0960
       8    C3      20.015371   17.905158   21.212277 C.3        1 MOL1        -0.1409
       9    H6      18.931879   17.731425   21.267063 H          1 MOL1         0.0960
      10    H7      20.410788   17.104202   20.572345 H          1 MOL1         0.0960
      11    C4      20.654069   17.737716   22.615317 C.3        1 MOL1        -0.1409
      12    H8      21.747200   17.807285   22.528827 H          1 MOL1         0.0960
      13    H9      20.439835   16.720229   22.970508 H          1 MOL1         0.0960
      14    C5      20.155722   18.753449   23.669168 C.3        1 MOL1        -0.1409
      15    H10     20.482454   19.763617   23.390138 H          1 MOL1         0.0960
      16    H11     19.057757   18.755980   23.679789 H          1 MOL1         0.0960
      17    C6      20.695760   18.425481   25.081274 C.3        1 MOL1        -0.1450
      18    H12     21.792633   18.382214   25.049803 H          1 MOL1         0.0960
      19    H13     20.351649   17.430976   25.395121 H          1 MOL1         0.0960
      20    C7      20.278671   19.469603   26.134896 C.3        1 MOL1         0.0172
      21    H14     20.756185   19.232284   27.089474 H          1 MOL1         0.0934
      22    H15     20.614942   20.462069   25.822915 H          1 MOL1         0.0934
      23    N1      18.782593   19.532728   26.372510 N.4        1 MOL1        -0.5956
      24    H16     18.273235   19.787552   25.520787 H          1 MOL1         0.3624
      25    H17     18.539746   20.227469   27.087132 H          1 MOL1         0.3624
      26    H18     18.409680   18.632555   26.691345 H          1 MOL1         0.3624
@<TRIPOS>BOND
    1     1     2    1
    2     1     3    1
    3     1     4    1
    4     1     5    1
    5     5     6    1
    6     5     7    1
    7     5     8    1
    8     8     9    1
    9     8    10    1
   10     8    11    1
   11    11    12    1
   12    11    13    1
   13    11    14    1
   14    14    15    1
   15    14    16    1
   16    14    17    1
   17    17    18    1
   18    17    19    1
   19    17    20    1
   20    20    21    1
   21    20    22    1
   22    20    23    1
   23    23    24    1
   24    23    25    1
   25    23    26    1
@<TRIPOS>SUBSTRUCTURE
       1 MOL1            1 RESIDUE      1      MOL     
@<SCITEGIC>MOL_PROPERTY
VM2 Rank
SciTegic.value.IntegerValue
126

@<SCITEGIC>MOL_PROPERTY
Conf_Id
SciTegic.value.IntegerValue
553

@<SCITEGIC>MOL_PROPERTY
Probability
SciTegic.value.DoubleValue
0.02

@<SCITEGIC>MOL_PROPERTY
Sum Probability
SciTegic.value.DoubleValue
99.56

@<SCITEGIC>MOL_PROPERTY
Delta G
SciTegic.value.DoubleValue
3.662

@<SCITEGIC>MOL_PROPERTY
G
SciTegic.value.DoubleValue
51.923

@<SCITEGIC>MOL_PROPERTY
E
SciTegic.value.DoubleValue
19.125

@<SCITEGIC>MOL_PROPERTY
-TS
SciTegic.value.DoubleValue
32.798

@<SCITEGIC>MOL_PROPERTY
U+W
SciTegic.value.DoubleValue
-2.337

@<SCITEGIC>MOL_PROPERTY
U
SciTegic.value.DoubleValue
51.512

@<SCITEGIC>MOL_PROPERTY
W
SciTegic.value.DoubleValue
-53.848

@<SCITEGIC>MOL_PROPERTY
W(PB)
SciTegic.value.DoubleValue
-56.117

@<SCITEGIC>MOL_PROPERTY
W(SA)
SciTegic.value.DoubleValue
2.269

@<SCITEGIC>MOL_PROPERTY
Valence
SciTegic.value.DoubleValue
5.253

@<SCITEGIC>MOL_PROPERTY
Coulomb
SciTegic.value.DoubleValue
45.470

@<SCITEGIC>MOL_PROPERTY
VdW
SciTegic.value.DoubleValue
0.789

@<SCITEGIC>MOL_PROPERTY
VdW6
SciTegic.value.DoubleValue
-7.872

@<SCITEGIC>MOL_PROPERTY
VdW12
SciTegic.value.DoubleValue
8.661

@<SCITEGIC>MOL_PROPERTY
Bond
SciTegic.value.DoubleValue
0.233

@<SCITEGIC>MOL_PROPERTY
Angle
SciTegic.value.DoubleValue
1.235

@<SCITEGIC>MOL_PROPERTY
Pdih
SciTegic.value.DoubleValue
3.785

@<SCITEGIC>MOL_PROPERTY
Idih
SciTegic.value.DoubleValue
0.000

@<SCITEGIC>MOL_PROPERTY
Tether
SciTegic.value.DoubleValue
0.000

@<TRIPOS>MOLECULE
guest-s14_vm2.mol2 : vm2 ligand conformer 127
          26          25           1
SMALL
USER_CHARGES
 
@<TRIPOS>ATOM
       1    C1      18.540185   18.528047   20.925995 C.3        1 MOL1        -0.2400
       2    H1      18.054575   19.441475   21.292925 H          1 MOL1         0.0971
       3    H2      17.882222   18.077749   20.171549 H          1 MOL1         0.0971
       4    H3      18.621082   17.815786   21.756277 H          1 MOL1         0.0971
       5    C2      19.924924   18.838869   20.317202 C.3        1 MOL1        -0.1385
       6    H4      19.781589   19.413711   19.391582 H          1 MOL1         0.0960
       7    H5      20.410908   17.899305   20.019271 H          1 MOL1         0.0960
       8    C3      20.869106   19.638659   21.250906 C.3        1 MOL1        -0.1409
       9    H6      21.793927   19.838643   20.692240 H          1 MOL1         0.0960
      10    H7      20.437098   20.624768   21.470111 H          1 MOL1         0.0960
      11    C4      21.248154   18.911586   22.567484 C.3        1 MOL1        -0.1409
      12    H8      22.288200   19.164000   22.816484 H          1 MOL1         0.0960
      13    H9      21.227813   17.823596   22.415747 H          1 MOL1         0.0960
      14    C5      20.354721   19.306979   23.768667 C.3        1 MOL1        -0.1409
      15    H10     20.439103   20.388448   23.943974 H          1 MOL1         0.0960
      16    H11     19.302397   19.108780   23.537136 H          1 MOL1         0.0960
      17    C6      20.756700   18.547220   25.054861 C.3        1 MOL1        -0.1450
      18    H12     21.818404   18.729356   25.268294 H          1 MOL1         0.0960
      19    H13     20.649048   17.465132   24.901715 H          1 MOL1         0.0960
      20    C7      19.931810   18.977276   26.283281 C.3        1 MOL1         0.0172
      21    H14     20.317040   18.472363   27.173345 H          1 MOL1         0.0934
      22    H15     20.030358   20.055727   26.433718 H          1 MOL1         0.0934
      23    N1      18.455399   18.650363   26.172604 N.4        1 MOL1        -0.5956
      24    H16     18.020102   19.124756   25.375565 H          1 MOL1         0.3624
      25    H17     17.938643   18.936649   27.011269 H          1 MOL1         0.3624
      26    H18     18.296292   17.644826   26.051834 H          1 MOL1         0.3624
@<TRIPOS>BOND
    1     1     2    1
    2     1     3    1
    3     1     4    1
    4     1     5    1
    5     5     6    1
    6     5     7    1
    7     5     8    1
    8     8     9    1
    9     8    10    1
   10     8    11    1
   11    11    12    1
   12    11    13    1
   13    11    14    1
   14    14    15    1
   15    14    16    1
   16    14    17    1
   17    17    18    1
   18    17    19    1
   19    17    20    1
   20    20    21    1
   21    20    22    1
   22    20    23    1
   23    23    24    1
   24    23    25    1
   25    23    26    1
@<TRIPOS>SUBSTRUCTURE
       1 MOL1            1 RESIDUE      1      MOL     
@<SCITEGIC>MOL_PROPERTY
VM2 Rank
SciTegic.value.IntegerValue
127

@<SCITEGIC>MOL_PROPERTY
Conf_Id
SciTegic.value.IntegerValue
1068

@<SCITEGIC>MOL_PROPERTY
Probability
SciTegic.value.DoubleValue
0.02

@<SCITEGIC>MOL_PROPERTY
Sum Probability
SciTegic.value.DoubleValue
99.58

@<SCITEGIC>MOL_PROPERTY
Delta G
SciTegic.value.DoubleValue
3.697

@<SCITEGIC>MOL_PROPERTY
G
SciTegic.value.DoubleValue
51.959

@<SCITEGIC>MOL_PROPERTY
E
SciTegic.value.DoubleValue
19.141

@<SCITEGIC>MOL_PROPERTY
-TS
SciTegic.value.DoubleValue
32.817

@<SCITEGIC>MOL_PROPERTY
U+W
SciTegic.value.DoubleValue
-2.321

@<SCITEGIC>MOL_PROPERTY
U
SciTegic.value.DoubleValue
51.663

@<SCITEGIC>MOL_PROPERTY
W
SciTegic.value.DoubleValue
-53.984

@<SCITEGIC>MOL_PROPERTY
W(PB)
SciTegic.value.DoubleValue
-56.239

@<SCITEGIC>MOL_PROPERTY
W(SA)
SciTegic.value.DoubleValue
2.256

@<SCITEGIC>MOL_PROPERTY
Valence
SciTegic.value.DoubleValue
5.225

@<SCITEGIC>MOL_PROPERTY
Coulomb
SciTegic.value.DoubleValue
45.676

@<SCITEGIC>MOL_PROPERTY
VdW
SciTegic.value.DoubleValue
0.761

@<SCITEGIC>MOL_PROPERTY
VdW6
SciTegic.value.DoubleValue
-7.910

@<SCITEGIC>MOL_PROPERTY
VdW12
SciTegic.value.DoubleValue
8.671

@<SCITEGIC>MOL_PROPERTY
Bond
SciTegic.value.DoubleValue
0.235

@<SCITEGIC>MOL_PROPERTY
Angle
SciTegic.value.DoubleValue
1.177

@<SCITEGIC>MOL_PROPERTY
Pdih
SciTegic.value.DoubleValue
3.813

@<SCITEGIC>MOL_PROPERTY
Idih
SciTegic.value.DoubleValue
0.000

@<SCITEGIC>MOL_PROPERTY
Tether
SciTegic.value.DoubleValue
0.000

@<TRIPOS>MOLECULE
guest-s14_vm2.mol2 : vm2 ligand conformer 128
          26          25           1
SMALL
USER_CHARGES
 
@<TRIPOS>ATOM
       1    C1      20.665981   20.003587   19.819520 C.3        1 MOL1        -0.2400
       2    H1      20.097806   19.600189   18.971181 H          1 MOL1         0.0971
       3    H2      20.196194   20.946538   20.128295 H          1 MOL1         0.0971
       4    H3      21.680356   20.231925   19.467482 H          1 MOL1         0.0971
       5    C2      20.708413   18.996621   20.988321 C.3        1 MOL1        -0.1385
       6    H4      21.318536   19.412429   21.799191 H          1 MOL1         0.0960
       7    H5      21.214440   18.079064   20.656970 H          1 MOL1         0.0960
       8    C3      19.287256   18.649732   21.494115 C.3        1 MOL1        -0.1409
       9    H6      18.742379   19.564257   21.765861 H          1 MOL1         0.0960
      10    H7      18.728800   18.201568   20.660613 H          1 MOL1         0.0960
      11    C4      19.281797   17.651948   22.681635 C.3        1 MOL1        -0.1409
      12    H8      20.168168   17.004036   22.639622 H          1 MOL1         0.0960
      13    H9      18.420128   16.980970   22.560080 H          1 MOL1         0.0960
      14    C5      19.167312   18.308134   24.081997 C.3        1 MOL1        -0.1409
      15    H10     18.221931   18.864385   24.147391 H          1 MOL1         0.0960
      16    H11     19.100877   17.504500   24.827071 H          1 MOL1         0.0960
      17    C6      20.341803   19.249908   24.443226 C.3        1 MOL1        -0.1450
      18    H12     20.348825   20.105173   23.756291 H          1 MOL1         0.0960
      19    H13     21.299063   18.727508   24.315232 H          1 MOL1         0.0960
      20    C7      20.243335   19.800146   25.879263 C.3        1 MOL1         0.0172
      21    H14     21.033882   20.538505   26.038676 H          1 MOL1         0.0934
      22    H15     19.279606   20.297566   26.017851 H          1 MOL1         0.0934
      23    N1      20.385103   18.738923   26.952923 N.4        1 MOL1        -0.5956
      24    H16     21.283804   18.249870   26.888563 H          1 MOL1         0.3624
      25    H17     19.648679   18.029684   26.886087 H          1 MOL1         0.3624
      26    H18     20.329750   19.140951   27.895053 H          1 MOL1         0.3624
@<TRIPOS>BOND
    1     1     2    1
    2     1     3    1
    3     1     4    1
    4     1     5    1
    5     5     6    1
    6     5     7    1
    7     5     8    1
    8     8     9    1
    9     8    10    1
   10     8    11    1
   11    11    12    1
   12    11    13    1
   13    11    14    1
   14    14    15    1
   15    14    16    1
   16    14    17    1
   17    17    18    1
   18    17    19    1
   19    17    20    1
   20    20    21    1
   21    20    22    1
   22    20    23    1
   23    23    24    1
   24    23    25    1
   25    23    26    1
@<TRIPOS>SUBSTRUCTURE
       1 MOL1            1 RESIDUE      1      MOL     
@<SCITEGIC>MOL_PROPERTY
VM2 Rank
SciTegic.value.IntegerValue
128

@<SCITEGIC>MOL_PROPERTY
Conf_Id
SciTegic.value.IntegerValue
815

@<SCITEGIC>MOL_PROPERTY
Probability
SciTegic.value.DoubleValue
0.01

@<SCITEGIC>MOL_PROPERTY
Sum Probability
SciTegic.value.DoubleValue
99.59

@<SCITEGIC>MOL_PROPERTY
Delta G
SciTegic.value.DoubleValue
3.714

@<SCITEGIC>MOL_PROPERTY
G
SciTegic.value.DoubleValue
51.975

@<SCITEGIC>MOL_PROPERTY
E
SciTegic.value.DoubleValue
19.150

@<SCITEGIC>MOL_PROPERTY
-TS
SciTegic.value.DoubleValue
32.825

@<SCITEGIC>MOL_PROPERTY
U+W
SciTegic.value.DoubleValue
-2.312

@<SCITEGIC>MOL_PROPERTY
U
SciTegic.value.DoubleValue
51.407

@<SCITEGIC>MOL_PROPERTY
W
SciTegic.value.DoubleValue
-53.719

@<SCITEGIC>MOL_PROPERTY
W(PB)
SciTegic.value.DoubleValue
-56.001

@<SCITEGIC>MOL_PROPERTY
W(SA)
SciTegic.value.DoubleValue
2.281

@<SCITEGIC>MOL_PROPERTY
Valence
SciTegic.value.DoubleValue
5.338

@<SCITEGIC>MOL_PROPERTY
Coulomb
SciTegic.value.DoubleValue
45.268

@<SCITEGIC>MOL_PROPERTY
VdW
SciTegic.value.DoubleValue
0.801

@<SCITEGIC>MOL_PROPERTY
VdW6
SciTegic.value.DoubleValue
-7.902

@<SCITEGIC>MOL_PROPERTY
VdW12
SciTegic.value.DoubleValue
8.703

@<SCITEGIC>MOL_PROPERTY
Bond
SciTegic.value.DoubleValue
0.239

@<SCITEGIC>MOL_PROPERTY
Angle
SciTegic.value.DoubleValue
1.230

@<SCITEGIC>MOL_PROPERTY
Pdih
SciTegic.value.DoubleValue
3.868

@<SCITEGIC>MOL_PROPERTY
Idih
SciTegic.value.DoubleValue
0.000

@<SCITEGIC>MOL_PROPERTY
Tether
SciTegic.value.DoubleValue
0.000

@<TRIPOS>MOLECULE
guest-s14_vm2.mol2 : vm2 ligand conformer 129
          26          25           1
SMALL
USER_CHARGES
 
@<TRIPOS>ATOM
       1    C1      19.769283   20.179687   20.182975 C.3        1 MOL1        -0.2400
       2    H1      19.257001   20.617560   21.046514 H          1 MOL1         0.0971
       3    H2      20.291224   20.991522   19.660098 H          1 MOL1         0.0971
       4    H3      19.005081   19.782854   19.502127 H          1 MOL1         0.0971
       5    C2      20.767878   19.073526   20.596497 C.3        1 MOL1        -0.1385
       6    H4      21.564867   19.494060   21.225413 H          1 MOL1         0.0960
       7    H5      21.262935   18.707977   19.685893 H          1 MOL1         0.0960
       8    C3      20.096872   17.870962   21.309077 C.3        1 MOL1        -0.1409
       9    H6      19.068791   17.738226   20.944974 H          1 MOL1         0.0960
      10    H7      20.633949   16.958176   21.016194 H          1 MOL1         0.0960
      11    C4      20.110252   17.941586   22.857950 C.3        1 MOL1        -0.1409
      12    H8      21.151291   17.972530   23.206581 H          1 MOL1         0.0960
      13    H9      19.683935   17.006854   23.247549 H          1 MOL1         0.0960
      14    C5      19.323473   19.137378   23.447796 C.3        1 MOL1        -0.1409
      15    H10     19.831700   20.077416   23.196334 H          1 MOL1         0.0960
      16    H11     18.327338   19.179968   22.986323 H          1 MOL1         0.0960
      17    C6      19.157641   19.052668   24.983247 C.3        1 MOL1        -0.1450
      18    H12     18.617907   18.133173   25.246278 H          1 MOL1         0.0960
      19    H13     18.534044   19.890848   25.321608 H          1 MOL1         0.0960
      20    C7      20.504904   19.093317   25.728471 C.3        1 MOL1         0.0172
      21    H14     21.118879   18.239885   25.429308 H          1 MOL1         0.0934
      22    H15     21.040660   20.010703   25.470121 H          1 MOL1         0.0934
      23    N1      20.350696   19.049876   27.234986 N.4        1 MOL1        -0.5956
      24    H16     21.258484   19.077802   27.711968 H          1 MOL1         0.3624
      25    H17     19.876238   18.195865   27.546012 H          1 MOL1         0.3624
      26    H18     19.804658   19.843395   27.586209 H          1 MOL1         0.3624
@<TRIPOS>BOND
    1     1     2    1
    2     1     3    1
    3     1     4    1
    4     1     5    1
    5     5     6    1
    6     5     7    1
    7     5     8    1
    8     8     9    1
    9     8    10    1
   10     8    11    1
   11    11    12    1
   12    11    13    1
   13    11    14    1
   14    14    15    1
   15    14    16    1
   16    14    17    1
   17    17    18    1
   18    17    19    1
   19    17    20    1
   20    20    21    1
   21    20    22    1
   22    20    23    1
   23    23    24    1
   24    23    25    1
   25    23    26    1
@<TRIPOS>SUBSTRUCTURE
       1 MOL1            1 RESIDUE      1      MOL     
@<SCITEGIC>MOL_PROPERTY
VM2 Rank
SciTegic.value.IntegerValue
129

@<SCITEGIC>MOL_PROPERTY
Conf_Id
SciTegic.value.IntegerValue
531

@<SCITEGIC>MOL_PROPERTY
Probability
SciTegic.value.DoubleValue
0.01

@<SCITEGIC>MOL_PROPERTY
Sum Probability
SciTegic.value.DoubleValue
99.61

@<SCITEGIC>MOL_PROPERTY
Delta G
SciTegic.value.DoubleValue
3.715

@<SCITEGIC>MOL_PROPERTY
G
SciTegic.value.DoubleValue
51.976

@<SCITEGIC>MOL_PROPERTY
E
SciTegic.value.DoubleValue
19.186

@<SCITEGIC>MOL_PROPERTY
-TS
SciTegic.value.DoubleValue
32.790

@<SCITEGIC>MOL_PROPERTY
U+W
SciTegic.value.DoubleValue
-2.276

@<SCITEGIC>MOL_PROPERTY
U
SciTegic.value.DoubleValue
51.296

@<SCITEGIC>MOL_PROPERTY
W
SciTegic.value.DoubleValue
-53.572

@<SCITEGIC>MOL_PROPERTY
W(PB)
SciTegic.value.DoubleValue
-55.840

@<SCITEGIC>MOL_PROPERTY
W(SA)
SciTegic.value.DoubleValue
2.268

@<SCITEGIC>MOL_PROPERTY
Valence
SciTegic.value.DoubleValue
5.428

@<SCITEGIC>MOL_PROPERTY
Coulomb
SciTegic.value.DoubleValue
45.118

@<SCITEGIC>MOL_PROPERTY
VdW
SciTegic.value.DoubleValue
0.751

@<SCITEGIC>MOL_PROPERTY
VdW6
SciTegic.value.DoubleValue
-7.913

@<SCITEGIC>MOL_PROPERTY
VdW12
SciTegic.value.DoubleValue
8.664

@<SCITEGIC>MOL_PROPERTY
Bond
SciTegic.value.DoubleValue
0.235

@<SCITEGIC>MOL_PROPERTY
Angle
SciTegic.value.DoubleValue
1.292

@<SCITEGIC>MOL_PROPERTY
Pdih
SciTegic.value.DoubleValue
3.901

@<SCITEGIC>MOL_PROPERTY
Idih
SciTegic.value.DoubleValue
0.000

@<SCITEGIC>MOL_PROPERTY
Tether
SciTegic.value.DoubleValue
0.000

@<TRIPOS>MOLECULE
guest-s14_vm2.mol2 : vm2 ligand conformer 130
          26          25           1
SMALL
USER_CHARGES
 
@<TRIPOS>ATOM
       1    C1      18.977120   19.186842   19.725785 C.3        1 MOL1        -0.2400
       2    H1      19.601342   18.718748   18.953482 H          1 MOL1         0.0971
       3    H2      17.940224   18.866885   19.559986 H          1 MOL1         0.0971
       4    H3      19.020351   20.275054   19.587337 H          1 MOL1         0.0971
       5    C2      19.450761   18.788615   21.139747 C.3        1 MOL1        -0.1385
       6    H4      19.371095   17.698946   21.257164 H          1 MOL1         0.0960
       7    H5      18.779547   19.245138   21.879080 H          1 MOL1         0.0960
       8    C3      20.906243   19.238593   21.401336 C.3        1 MOL1        -0.1409
       9    H6      21.544537   18.872345   20.585394 H          1 MOL1         0.0960
      10    H7      20.961393   20.335278   21.362776 H          1 MOL1         0.0960
      11    C4      21.500518   18.740047   22.744044 C.3        1 MOL1        -0.1409
      12    H8      22.544300   19.080559   22.789205 H          1 MOL1         0.0960
      13    H9      21.547726   17.642348   22.752135 H          1 MOL1         0.0960
      14    C5      20.768452   19.257625   24.009711 C.3        1 MOL1        -0.1409
      15    H10     21.520979   19.448361   24.786487 H          1 MOL1         0.0960
      16    H11     20.293963   20.226530   23.801179 H          1 MOL1         0.0960
      17    C6      19.726965   18.255304   24.569357 C.3        1 MOL1        -0.1450
      18    H12     20.228251   17.325154   24.868321 H          1 MOL1         0.0960
      19    H13     19.007829   17.979342   23.789991 H          1 MOL1         0.0960
      20    C7      18.943767   18.821996   25.769236 C.3        1 MOL1         0.0172
      21    H14     18.446734   19.751347   25.478263 H          1 MOL1         0.0934
      22    H15     18.175769   18.105067   26.072136 H          1 MOL1         0.0934
      23    N1      19.807174   19.109978   26.981783 N.4        1 MOL1        -0.5956
      24    H16     20.284819   18.267424   27.317855 H          1 MOL1         0.3624
      25    H17     19.253960   19.473420   27.765458 H          1 MOL1         0.3624
      26    H18     20.529894   19.806680   26.776310 H          1 MOL1         0.3624
@<TRIPOS>BOND
    1     1     2    1
    2     1     3    1
    3     1     4    1
    4     1     5    1
    5     5     6    1
    6     5     7    1
    7     5     8    1
    8     8     9    1
    9     8    10    1
   10     8    11    1
   11    11    12    1
   12    11    13    1
   13    11    14    1
   14    14    15    1
   15    14    16    1
   16    14    17    1
   17    17    18    1
   18    17    19    1
   19    17    20    1
   20    20    21    1
   21    20    22    1
   22    20    23    1
   23    23    24    1
   24    23    25    1
   25    23    26    1
@<TRIPOS>SUBSTRUCTURE
       1 MOL1            1 RESIDUE      1      MOL     
@<SCITEGIC>MOL_PROPERTY
VM2 Rank
SciTegic.value.IntegerValue
130

@<SCITEGIC>MOL_PROPERTY
Conf_Id
SciTegic.value.IntegerValue
1338

@<SCITEGIC>MOL_PROPERTY
Probability
SciTegic.value.DoubleValue
0.01

@<SCITEGIC>MOL_PROPERTY
Sum Probability
SciTegic.value.DoubleValue
99.62

@<SCITEGIC>MOL_PROPERTY
Delta G
SciTegic.value.DoubleValue
3.725

@<SCITEGIC>MOL_PROPERTY
G
SciTegic.value.DoubleValue
51.986

@<SCITEGIC>MOL_PROPERTY
E
SciTegic.value.DoubleValue
19.141

@<SCITEGIC>MOL_PROPERTY
-TS
SciTegic.value.DoubleValue
32.845

@<SCITEGIC>MOL_PROPERTY
U+W
SciTegic.value.DoubleValue
-2.320

@<SCITEGIC>MOL_PROPERTY
U
SciTegic.value.DoubleValue
51.425

@<SCITEGIC>MOL_PROPERTY
W
SciTegic.value.DoubleValue
-53.746

@<SCITEGIC>MOL_PROPERTY
W(PB)
SciTegic.value.DoubleValue
-56.027

@<SCITEGIC>MOL_PROPERTY
W(SA)
SciTegic.value.DoubleValue
2.282

@<SCITEGIC>MOL_PROPERTY
Valence
SciTegic.value.DoubleValue
5.322

@<SCITEGIC>MOL_PROPERTY
Coulomb
SciTegic.value.DoubleValue
45.311

@<SCITEGIC>MOL_PROPERTY
VdW
SciTegic.value.DoubleValue
0.792

@<SCITEGIC>MOL_PROPERTY
VdW6
SciTegic.value.DoubleValue
-7.911

@<SCITEGIC>MOL_PROPERTY
VdW12
SciTegic.value.DoubleValue
8.703

@<SCITEGIC>MOL_PROPERTY
Bond
SciTegic.value.DoubleValue
0.240

@<SCITEGIC>MOL_PROPERTY
Angle
SciTegic.value.DoubleValue
1.176

@<SCITEGIC>MOL_PROPERTY
Pdih
SciTegic.value.DoubleValue
3.906

@<SCITEGIC>MOL_PROPERTY
Idih
SciTegic.value.DoubleValue
0.000

@<SCITEGIC>MOL_PROPERTY
Tether
SciTegic.value.DoubleValue
0.000

@<TRIPOS>MOLECULE
guest-s14_vm2.mol2 : vm2 ligand conformer 131
          26          25           1
SMALL
USER_CHARGES
 
@<TRIPOS>ATOM
       1    C1      20.340644   20.086507   19.771292 C.3        1 MOL1        -0.2400
       2    H1      19.330425   20.479632   19.597655 H          1 MOL1         0.0971
       3    H2      21.049065   20.918127   19.663760 H          1 MOL1         0.0971
       4    H3      20.561688   19.352376   18.985537 H          1 MOL1         0.0971
       5    C2      20.454924   19.451191   21.173265 C.3        1 MOL1        -0.1385
       6    H4      20.264456   20.224937   21.928642 H          1 MOL1         0.0960
       7    H5      21.481757   19.091621   21.327646 H          1 MOL1         0.0960
       8    C3      19.458406   18.283288   21.352961 C.3        1 MOL1        -0.1409
       9    H6      18.431079   18.665731   21.278240 H          1 MOL1         0.0960
      10    H7      19.582418   17.577702   20.519842 H          1 MOL1         0.0960
      11    C4      19.620824   17.499786   22.681238 C.3        1 MOL1        -0.1409
      12    H8      20.610360   17.023876   22.720818 H          1 MOL1         0.0960
      13    H9      18.896467   16.673600   22.667304 H          1 MOL1         0.0960
      14    C5      19.373608   18.337274   23.963118 C.3        1 MOL1        -0.1409
      15    H10     18.679318   19.161149   23.747267 H          1 MOL1         0.0960
      16    H11     18.867068   17.697190   24.697809 H          1 MOL1         0.0960
      17    C6      20.676923   18.882132   24.601118 C.3        1 MOL1        -0.1450
      18    H12     21.248776   19.458063   23.864903 H          1 MOL1         0.0960
      19    H13     21.320886   18.046110   24.904798 H          1 MOL1         0.0960
      20    C7      20.407754   19.787913   25.818228 C.3        1 MOL1         0.0172
      21    H14     21.353580   20.201654   26.178492 H          1 MOL1         0.0934
      22    H15     19.762622   20.619567   25.522329 H          1 MOL1         0.0934
      23    N1      19.747918   19.070910   26.979780 N.4        1 MOL1        -0.5956
      24    H16     19.594652   19.698153   27.776873 H          1 MOL1         0.3624
      25    H17     20.318797   18.289841   27.318917 H          1 MOL1         0.3624
      26    H18     18.833882   18.687837   26.719532 H          1 MOL1         0.3624
@<TRIPOS>BOND
    1     1     2    1
    2     1     3    1
    3     1     4    1
    4     1     5    1
    5     5     6    1
    6     5     7    1
    7     5     8    1
    8     8     9    1
    9     8    10    1
   10     8    11    1
   11    11    12    1
   12    11    13    1
   13    11    14    1
   14    14    15    1
   15    14    16    1
   16    14    17    1
   17    17    18    1
   18    17    19    1
   19    17    20    1
   20    20    21    1
   21    20    22    1
   22    20    23    1
   23    23    24    1
   24    23    25    1
   25    23    26    1
@<TRIPOS>SUBSTRUCTURE
       1 MOL1            1 RESIDUE      1      MOL     
@<SCITEGIC>MOL_PROPERTY
VM2 Rank
SciTegic.value.IntegerValue
131

@<SCITEGIC>MOL_PROPERTY
Conf_Id
SciTegic.value.IntegerValue
990

@<SCITEGIC>MOL_PROPERTY
Probability
SciTegic.value.DoubleValue
0.01

@<SCITEGIC>MOL_PROPERTY
Sum Probability
SciTegic.value.DoubleValue
99.63

@<SCITEGIC>MOL_PROPERTY
Delta G
SciTegic.value.DoubleValue
3.728

@<SCITEGIC>MOL_PROPERTY
G
SciTegic.value.DoubleValue
51.989

@<SCITEGIC>MOL_PROPERTY
E
SciTegic.value.DoubleValue
19.145

@<SCITEGIC>MOL_PROPERTY
-TS
SciTegic.value.DoubleValue
32.845

@<SCITEGIC>MOL_PROPERTY
U+W
SciTegic.value.DoubleValue
-2.317

@<SCITEGIC>MOL_PROPERTY
U
SciTegic.value.DoubleValue
51.425

@<SCITEGIC>MOL_PROPERTY
W
SciTegic.value.DoubleValue
-53.742

@<SCITEGIC>MOL_PROPERTY
W(PB)
SciTegic.value.DoubleValue
-56.025

@<SCITEGIC>MOL_PROPERTY
W(SA)
SciTegic.value.DoubleValue
2.282

@<SCITEGIC>MOL_PROPERTY
Valence
SciTegic.value.DoubleValue
5.322

@<SCITEGIC>MOL_PROPERTY
Coulomb
SciTegic.value.DoubleValue
45.311

@<SCITEGIC>MOL_PROPERTY
VdW
SciTegic.value.DoubleValue
0.792

@<SCITEGIC>MOL_PROPERTY
VdW6
SciTegic.value.DoubleValue
-7.911

@<SCITEGIC>MOL_PROPERTY
VdW12
SciTegic.value.DoubleValue
8.703

@<SCITEGIC>MOL_PROPERTY
Bond
SciTegic.value.DoubleValue
0.240

@<SCITEGIC>MOL_PROPERTY
Angle
SciTegic.value.DoubleValue
1.176

@<SCITEGIC>MOL_PROPERTY
Pdih
SciTegic.value.DoubleValue
3.906

@<SCITEGIC>MOL_PROPERTY
Idih
SciTegic.value.DoubleValue
0.000

@<SCITEGIC>MOL_PROPERTY
Tether
SciTegic.value.DoubleValue
0.000

@<TRIPOS>MOLECULE
guest-s14_vm2.mol2 : vm2 ligand conformer 132
          26          25           1
SMALL
USER_CHARGES
 
@<TRIPOS>ATOM
       1    C1      18.454971   19.119007   20.749857 C.3        1 MOL1        -0.2400
       2    H1      18.456010   20.074796   20.209931 H          1 MOL1         0.0971
       3    H2      17.657826   18.496771   20.322912 H          1 MOL1         0.0971
       4    H3      18.193862   19.322649   21.794015 H          1 MOL1         0.0971
       5    C2      19.823301   18.410237   20.618307 C.3        1 MOL1        -0.1385
       6    H4      20.005012   18.221507   19.550940 H          1 MOL1         0.0960
       7    H5      19.789872   17.422164   21.098062 H          1 MOL1         0.0960
       8    C3      21.004342   19.242870   21.180436 C.3        1 MOL1        -0.1409
       9    H6      21.882769   19.061525   20.545707 H          1 MOL1         0.0960
      10    H7      20.790171   20.316562   21.088358 H          1 MOL1         0.0960
      11    C4      21.405735   18.902541   22.639052 C.3        1 MOL1        -0.1409
      12    H8      22.289157   19.501491   22.900016 H          1 MOL1         0.0960
      13    H9      21.721875   17.851705   22.694470 H          1 MOL1         0.0960
      14    C5      20.295162   19.160614   23.683536 C.3        1 MOL1        -0.1409
      15    H10     19.910835   20.183397   23.567238 H          1 MOL1         0.0960
      16    H11     19.459023   18.474696   23.500443 H          1 MOL1         0.0960
      17    C6      20.810540   18.964494   25.129005 C.3        1 MOL1        -0.1450
      18    H12     21.668819   19.627135   25.302718 H          1 MOL1         0.0960
      19    H13     21.175522   17.937373   25.262415 H          1 MOL1         0.0960
      20    C7      19.736644   19.271277   26.190644 C.3        1 MOL1         0.0172
      21    H14     20.181596   19.201169   27.186967 H          1 MOL1         0.0934
      22    H15     19.364842   20.290393   26.054379 H          1 MOL1         0.0934
      23    N1      18.550306   18.327960   26.150162 N.4        1 MOL1        -0.5956
      24    H16     17.861945   18.551176   26.877273 H          1 MOL1         0.3624
      25    H17     18.833881   17.353565   26.295723 H          1 MOL1         0.3624
      26    H18     18.061391   18.370795   25.250792 H          1 MOL1         0.3624
@<TRIPOS>BOND
    1     1     2    1
    2     1     3    1
    3     1     4    1
    4     1     5    1
    5     5     6    1
    6     5     7    1
    7     5     8    1
    8     8     9    1
    9     8    10    1
   10     8    11    1
   11    11    12    1
   12    11    13    1
   13    11    14    1
   14    14    15    1
   15    14    16    1
   16    14    17    1
   17    17    18    1
   18    17    19    1
   19    17    20    1
   20    20    21    1
   21    20    22    1
   22    20    23    1
   23    23    24    1
   24    23    25    1
   25    23    26    1
@<TRIPOS>SUBSTRUCTURE
       1 MOL1            1 RESIDUE      1      MOL     
@<SCITEGIC>MOL_PROPERTY
VM2 Rank
SciTegic.value.IntegerValue
132

@<SCITEGIC>MOL_PROPERTY
Conf_Id
SciTegic.value.IntegerValue
445

@<SCITEGIC>MOL_PROPERTY
Probability
SciTegic.value.DoubleValue
0.01

@<SCITEGIC>MOL_PROPERTY
Sum Probability
SciTegic.value.DoubleValue
99.65

@<SCITEGIC>MOL_PROPERTY
Delta G
SciTegic.value.DoubleValue
3.733

@<SCITEGIC>MOL_PROPERTY
G
SciTegic.value.DoubleValue
51.994

@<SCITEGIC>MOL_PROPERTY
E
SciTegic.value.DoubleValue
19.192

@<SCITEGIC>MOL_PROPERTY
-TS
SciTegic.value.DoubleValue
32.803

@<SCITEGIC>MOL_PROPERTY
U+W
SciTegic.value.DoubleValue
-2.270

@<SCITEGIC>MOL_PROPERTY
U
SciTegic.value.DoubleValue
51.677

@<SCITEGIC>MOL_PROPERTY
W
SciTegic.value.DoubleValue
-53.947

@<SCITEGIC>MOL_PROPERTY
W(PB)
SciTegic.value.DoubleValue
-56.190

@<SCITEGIC>MOL_PROPERTY
W(SA)
SciTegic.value.DoubleValue
2.243

@<SCITEGIC>MOL_PROPERTY
Valence
SciTegic.value.DoubleValue
5.252

@<SCITEGIC>MOL_PROPERTY
Coulomb
SciTegic.value.DoubleValue
45.638

@<SCITEGIC>MOL_PROPERTY
VdW
SciTegic.value.DoubleValue
0.787

@<SCITEGIC>MOL_PROPERTY
VdW6
SciTegic.value.DoubleValue
-7.893

@<SCITEGIC>MOL_PROPERTY
VdW12
SciTegic.value.DoubleValue
8.680

@<SCITEGIC>MOL_PROPERTY
Bond
SciTegic.value.DoubleValue
0.235

@<SCITEGIC>MOL_PROPERTY
Angle
SciTegic.value.DoubleValue
1.222

@<SCITEGIC>MOL_PROPERTY
Pdih
SciTegic.value.DoubleValue
3.795

@<SCITEGIC>MOL_PROPERTY
Idih
SciTegic.value.DoubleValue
0.000

@<SCITEGIC>MOL_PROPERTY
Tether
SciTegic.value.DoubleValue
0.000

@<TRIPOS>MOLECULE
guest-s14_vm2.mol2 : vm2 ligand conformer 133
          26          25           1
SMALL
USER_CHARGES
 
@<TRIPOS>ATOM
       1    C1      18.923455   18.854222   19.761288 C.3        1 MOL1        -0.2400
       2    H1      18.227626   19.648188   20.062345 H          1 MOL1         0.0971
       3    H2      19.556626   19.242795   18.952996 H          1 MOL1         0.0971
       4    H3      18.331614   18.023372   19.355776 H          1 MOL1         0.0971
       5    C2      19.777226   18.382489   20.957288 C.3        1 MOL1        -0.1385
       6    H4      20.436663   17.566050   20.631194 H          1 MOL1         0.0960
       7    H5      19.117930   17.961279   21.725768 H          1 MOL1         0.0960
       8    C3      20.630418   19.535557   21.538962 C.3        1 MOL1        -0.1409
       9    H6      21.300164   19.897277   20.746467 H          1 MOL1         0.0960
      10    H7      19.991785   20.388281   21.807478 H          1 MOL1         0.0960
      11    C4      21.493729   19.110858   22.755568 C.3        1 MOL1        -0.1409
      12    H8      22.454022   19.641535   22.694898 H          1 MOL1         0.0960
      13    H9      21.742773   18.042596   22.692318 H          1 MOL1         0.0960
      14    C5      20.870760   19.431767   24.138907 C.3        1 MOL1        -0.1409
      15    H10     21.600310   19.153180   24.910608 H          1 MOL1         0.0960
      16    H11     20.727976   20.517378   24.231070 H          1 MOL1         0.0960
      17    C6      19.527766   18.713132   24.416010 C.3        1 MOL1        -0.1450
      18    H12     19.637682   17.631888   24.259613 H          1 MOL1         0.0960
      19    H13     18.771386   19.064976   23.703617 H          1 MOL1         0.0960
      20    C7      18.994238   18.976277   25.837546 C.3        1 MOL1         0.0172
      21    H14     18.909272   20.053284   26.005595 H          1 MOL1         0.0934
      22    H15     17.998242   18.536275   25.937253 H          1 MOL1         0.0934
      23    N1      19.863408   18.394699   26.935431 N.4        1 MOL1        -0.5956
      24    H16     19.472029   18.574960   27.866359 H          1 MOL1         0.3624
      25    H17     20.807086   18.793657   26.924778 H          1 MOL1         0.3624
      26    H18     19.962810   17.378442   26.844228 H          1 MOL1         0.3624
@<TRIPOS>BOND
    1     1     2    1
    2     1     3    1
    3     1     4    1
    4     1     5    1
    5     5     6    1
    6     5     7    1
    7     5     8    1
    8     8     9    1
    9     8    10    1
   10     8    11    1
   11    11    12    1
   12    11    13    1
   13    11    14    1
   14    14    15    1
   15    14    16    1
   16    14    17    1
   17    17    18    1
   18    17    19    1
   19    17    20    1
   20    20    21    1
   21    20    22    1
   22    20    23    1
   23    23    24    1
   24    23    25    1
   25    23    26    1
@<TRIPOS>SUBSTRUCTURE
       1 MOL1            1 RESIDUE      1      MOL     
@<SCITEGIC>MOL_PROPERTY
VM2 Rank
SciTegic.value.IntegerValue
133

@<SCITEGIC>MOL_PROPERTY
Conf_Id
SciTegic.value.IntegerValue
1361

@<SCITEGIC>MOL_PROPERTY
Probability
SciTegic.value.DoubleValue
0.01

@<SCITEGIC>MOL_PROPERTY
Sum Probability
SciTegic.value.DoubleValue
99.66

@<SCITEGIC>MOL_PROPERTY
Delta G
SciTegic.value.DoubleValue
3.745

@<SCITEGIC>MOL_PROPERTY
G
SciTegic.value.DoubleValue
52.006

@<SCITEGIC>MOL_PROPERTY
E
SciTegic.value.DoubleValue
19.181

@<SCITEGIC>MOL_PROPERTY
-TS
SciTegic.value.DoubleValue
32.825

@<SCITEGIC>MOL_PROPERTY
U+W
SciTegic.value.DoubleValue
-2.281

@<SCITEGIC>MOL_PROPERTY
U
SciTegic.value.DoubleValue
51.407

@<SCITEGIC>MOL_PROPERTY
W
SciTegic.value.DoubleValue
-53.688

@<SCITEGIC>MOL_PROPERTY
W(PB)
SciTegic.value.DoubleValue
-55.962

@<SCITEGIC>MOL_PROPERTY
W(SA)
SciTegic.value.DoubleValue
2.273

@<SCITEGIC>MOL_PROPERTY
Valence
SciTegic.value.DoubleValue
5.338

@<SCITEGIC>MOL_PROPERTY
Coulomb
SciTegic.value.DoubleValue
45.268

@<SCITEGIC>MOL_PROPERTY
VdW
SciTegic.value.DoubleValue
0.801

@<SCITEGIC>MOL_PROPERTY
VdW6
SciTegic.value.DoubleValue
-7.902

@<SCITEGIC>MOL_PROPERTY
VdW12
SciTegic.value.DoubleValue
8.703

@<SCITEGIC>MOL_PROPERTY
Bond
SciTegic.value.DoubleValue
0.239

@<SCITEGIC>MOL_PROPERTY
Angle
SciTegic.value.DoubleValue
1.230

@<SCITEGIC>MOL_PROPERTY
Pdih
SciTegic.value.DoubleValue
3.868

@<SCITEGIC>MOL_PROPERTY
Idih
SciTegic.value.DoubleValue
0.000

@<SCITEGIC>MOL_PROPERTY
Tether
SciTegic.value.DoubleValue
0.000

@<TRIPOS>MOLECULE
guest-s14_vm2.mol2 : vm2 ligand conformer 134
          26          25           1
SMALL
USER_CHARGES
 
@<TRIPOS>ATOM
       1    C1      18.634423   19.392766   20.773222 C.3        1 MOL1        -0.2400
       2    H1      18.925795   20.450576   20.741810 H          1 MOL1         0.0971
       3    H2      17.813713   19.248980   20.058642 H          1 MOL1         0.0971
       4    H3      18.241613   19.166803   21.772134 H          1 MOL1         0.0971
       5    C2      19.825158   18.475746   20.418499 C.3        1 MOL1        -0.1385
       6    H4      20.072861   18.614867   19.356877 H          1 MOL1         0.0960
       7    H5      19.519788   17.425369   20.524205 H          1 MOL1         0.0960
       8    C3      21.102298   18.732564   21.258662 C.3        1 MOL1        -0.1409
       9    H6      21.884197   18.056715   20.885491 H          1 MOL1         0.0960
      10    H7      21.477323   19.748619   21.074226 H          1 MOL1         0.0960
      11    C4      20.937385   18.486174   22.781102 C.3        1 MOL1        -0.1409
      12    H8      21.878377   18.072367   23.169200 H          1 MOL1         0.0960
      13    H9      20.174140   17.715211   22.950122 H          1 MOL1         0.0960
      14    C5      20.611772   19.774179   23.580790 C.3        1 MOL1        -0.1409
      15    H10     21.405105   20.513857   23.405717 H          1 MOL1         0.0960
      16    H11     19.683343   20.231213   23.218312 H          1 MOL1         0.0960
      17    C6      20.495485   19.527097   25.103084 C.3        1 MOL1        -0.1450
      18    H12     20.370588   20.492125   25.612054 H          1 MOL1         0.0960
      19    H13     21.430497   19.091472   25.479844 H          1 MOL1         0.0960
      20    C7      19.312272   18.610424   25.466418 C.3        1 MOL1         0.0172
      21    H14     18.381720   19.045044   25.091508 H          1 MOL1         0.0934
      22    H15     19.446452   17.630283   25.001792 H          1 MOL1         0.0934
      23    N1      19.162207   18.400049   26.959222 N.4        1 MOL1        -0.5956
      24    H16     19.004154   19.283145   27.455549 H          1 MOL1         0.3624
      25    H17     19.996509   17.968273   27.369944 H          1 MOL1         0.3624
      26    H18     18.369475   17.787538   27.180038 H          1 MOL1         0.3624
@<TRIPOS>BOND
    1     1     2    1
    2     1     3    1
    3     1     4    1
    4     1     5    1
    5     5     6    1
    6     5     7    1
    7     5     8    1
    8     8     9    1
    9     8    10    1
   10     8    11    1
   11    11    12    1
   12    11    13    1
   13    11    14    1
   14    14    15    1
   15    14    16    1
   16    14    17    1
   17    17    18    1
   18    17    19    1
   19    17    20    1
   20    20    21    1
   21    20    22    1
   22    20    23    1
   23    23    24    1
   24    23    25    1
   25    23    26    1
@<TRIPOS>SUBSTRUCTURE
       1 MOL1            1 RESIDUE      1      MOL     
@<SCITEGIC>MOL_PROPERTY
VM2 Rank
SciTegic.value.IntegerValue
134

@<SCITEGIC>MOL_PROPERTY
Conf_Id
SciTegic.value.IntegerValue
576

@<SCITEGIC>MOL_PROPERTY
Probability
SciTegic.value.DoubleValue
0.01

@<SCITEGIC>MOL_PROPERTY
Sum Probability
SciTegic.value.DoubleValue
99.68

@<SCITEGIC>MOL_PROPERTY
Delta G
SciTegic.value.DoubleValue
3.765

@<SCITEGIC>MOL_PROPERTY
G
SciTegic.value.DoubleValue
52.027

@<SCITEGIC>MOL_PROPERTY
E
SciTegic.value.DoubleValue
19.238

@<SCITEGIC>MOL_PROPERTY
-TS
SciTegic.value.DoubleValue
32.789

@<SCITEGIC>MOL_PROPERTY
U+W
SciTegic.value.DoubleValue
-2.224

@<SCITEGIC>MOL_PROPERTY
U
SciTegic.value.DoubleValue
51.443

@<SCITEGIC>MOL_PROPERTY
W
SciTegic.value.DoubleValue
-53.667

@<SCITEGIC>MOL_PROPERTY
W(PB)
SciTegic.value.DoubleValue
-55.926

@<SCITEGIC>MOL_PROPERTY
W(SA)
SciTegic.value.DoubleValue
2.259

@<SCITEGIC>MOL_PROPERTY
Valence
SciTegic.value.DoubleValue
5.421

@<SCITEGIC>MOL_PROPERTY
Coulomb
SciTegic.value.DoubleValue
45.330

@<SCITEGIC>MOL_PROPERTY
VdW
SciTegic.value.DoubleValue
0.692

@<SCITEGIC>MOL_PROPERTY
VdW6
SciTegic.value.DoubleValue
-8.008

@<SCITEGIC>MOL_PROPERTY
VdW12
SciTegic.value.DoubleValue
8.700

@<SCITEGIC>MOL_PROPERTY
Bond
SciTegic.value.DoubleValue
0.240

@<SCITEGIC>MOL_PROPERTY
Angle
SciTegic.value.DoubleValue
1.285

@<SCITEGIC>MOL_PROPERTY
Pdih
SciTegic.value.DoubleValue
3.896

@<SCITEGIC>MOL_PROPERTY
Idih
SciTegic.value.DoubleValue
0.000

@<SCITEGIC>MOL_PROPERTY
Tether
SciTegic.value.DoubleValue
0.000

@<TRIPOS>MOLECULE
guest-s14_vm2.mol2 : vm2 ligand conformer 135
          26          25           1
SMALL
USER_CHARGES
 
@<TRIPOS>ATOM
       1    C1      20.237451   20.450169   20.826420 C.3        1 MOL1        -0.2400
       2    H1      19.152862   20.600233   20.749004 H          1 MOL1         0.0971
       3    H2      20.552701   20.691516   21.848943 H          1 MOL1         0.0971
       4    H3      20.724854   21.169227   20.155407 H          1 MOL1         0.0971
       5    C2      20.629036   19.005876   20.445267 C.3        1 MOL1        -0.1385
       6    H4      21.708826   18.869314   20.597324 H          1 MOL1         0.0960
       7    H5      20.453458   18.865546   19.369517 H          1 MOL1         0.0960
       8    C3      19.852789   17.908240   21.216985 C.3        1 MOL1        -0.1409
       9    H6      18.780850   17.969735   20.984191 H          1 MOL1         0.0960
      10    H7      20.184100   16.935088   20.828906 H          1 MOL1         0.0960
      11    C4      20.073007   17.916132   22.752291 C.3        1 MOL1        -0.1409
      12    H8      21.072912   18.308250   22.980170 H          1 MOL1         0.0960
      13    H9      20.065693   16.876838   23.108851 H          1 MOL1         0.0960
      14    C5      18.980504   18.698370   23.526254 C.3        1 MOL1        -0.1409
      15    H10     18.942168   19.742445   23.193557 H          1 MOL1         0.0960
      16    H11     17.997772   18.266653   23.291716 H          1 MOL1         0.0960
      17    C6      19.182106   18.660992   25.059196 C.3        1 MOL1        -0.1450
      18    H12     19.197393   17.618873   25.405198 H          1 MOL1         0.0960
      19    H13     18.321086   19.140603   25.543493 H          1 MOL1         0.0960
      20    C7      20.471811   19.375082   25.505321 C.3        1 MOL1         0.0172
      21    H14     21.340995   18.879582   25.065369 H          1 MOL1         0.0934
      22    H15     20.455641   20.412641   25.160953 H          1 MOL1         0.0934
      23    N1      20.654296   19.384138   27.009267 N.4        1 MOL1        -0.5956
      24    H16     21.517867   19.863998   27.285552 H          1 MOL1         0.3624
      25    H17     20.704090   18.435001   27.393768 H          1 MOL1         0.3624
      26    H18     19.882081   19.862223   27.484971 H          1 MOL1         0.3624
@<TRIPOS>BOND
    1     1     2    1
    2     1     3    1
    3     1     4    1
    4     1     5    1
    5     5     6    1
    6     5     7    1
    7     5     8    1
    8     8     9    1
    9     8    10    1
   10     8    11    1
   11    11    12    1
   12    11    13    1
   13    11    14    1
   14    14    15    1
   15    14    16    1
   16    14    17    1
   17    17    18    1
   18    17    19    1
   19    17    20    1
   20    20    21    1
   21    20    22    1
   22    20    23    1
   23    23    24    1
   24    23    25    1
   25    23    26    1
@<TRIPOS>SUBSTRUCTURE
       1 MOL1            1 RESIDUE      1      MOL     
@<SCITEGIC>MOL_PROPERTY
VM2 Rank
SciTegic.value.IntegerValue
135

@<SCITEGIC>MOL_PROPERTY
Conf_Id
SciTegic.value.IntegerValue
841

@<SCITEGIC>MOL_PROPERTY
Probability
SciTegic.value.DoubleValue
0.01

@<SCITEGIC>MOL_PROPERTY
Sum Probability
SciTegic.value.DoubleValue
99.69

@<SCITEGIC>MOL_PROPERTY
Delta G
SciTegic.value.DoubleValue
3.768

@<SCITEGIC>MOL_PROPERTY
G
SciTegic.value.DoubleValue
52.029

@<SCITEGIC>MOL_PROPERTY
E
SciTegic.value.DoubleValue
19.241

@<SCITEGIC>MOL_PROPERTY
-TS
SciTegic.value.DoubleValue
32.788

@<SCITEGIC>MOL_PROPERTY
U+W
SciTegic.value.DoubleValue
-2.221

@<SCITEGIC>MOL_PROPERTY
U
SciTegic.value.DoubleValue
51.443

@<SCITEGIC>MOL_PROPERTY
W
SciTegic.value.DoubleValue
-53.664

@<SCITEGIC>MOL_PROPERTY
W(PB)
SciTegic.value.DoubleValue
-55.932

@<SCITEGIC>MOL_PROPERTY
W(SA)
SciTegic.value.DoubleValue
2.268

@<SCITEGIC>MOL_PROPERTY
Valence
SciTegic.value.DoubleValue
5.420

@<SCITEGIC>MOL_PROPERTY
Coulomb
SciTegic.value.DoubleValue
45.330

@<SCITEGIC>MOL_PROPERTY
VdW
SciTegic.value.DoubleValue
0.692

@<SCITEGIC>MOL_PROPERTY
VdW6
SciTegic.value.DoubleValue
-8.007

@<SCITEGIC>MOL_PROPERTY
VdW12
SciTegic.value.DoubleValue
8.700

@<SCITEGIC>MOL_PROPERTY
Bond
SciTegic.value.DoubleValue
0.240

@<SCITEGIC>MOL_PROPERTY
Angle
SciTegic.value.DoubleValue
1.285

@<SCITEGIC>MOL_PROPERTY
Pdih
SciTegic.value.DoubleValue
3.896

@<SCITEGIC>MOL_PROPERTY
Idih
SciTegic.value.DoubleValue
0.000

@<SCITEGIC>MOL_PROPERTY
Tether
SciTegic.value.DoubleValue
0.000

@<TRIPOS>MOLECULE
guest-s14_vm2.mol2 : vm2 ligand conformer 136
          26          25           1
SMALL
USER_CHARGES
 
@<TRIPOS>ATOM
       1    C1      20.560449   20.507961   20.820195 C.3        1 MOL1        -0.2400
       2    H1      19.707096   20.900202   20.251875 H          1 MOL1         0.0971
       3    H2      20.427468   20.795977   21.868658 H          1 MOL1         0.0971
       4    H3      21.464686   21.008142   20.449961 H          1 MOL1         0.0971
       5    C2      20.680585   18.975799   20.646878 C.3        1 MOL1        -0.1385
       6    H4      21.579064   18.602437   21.157667 H          1 MOL1         0.0960
       7    H5      20.832194   18.767323   19.578486 H          1 MOL1         0.0960
       8    C3      19.426107   18.201706   21.127699 C.3        1 MOL1        -0.1409
       9    H6      18.528141   18.824294   21.012794 H          1 MOL1         0.0960
      10    H7      19.277469   17.342804   20.458676 H          1 MOL1         0.0960
      11    C4      19.513386   17.654145   22.575822 C.3        1 MOL1        -0.1409
      12    H8      20.352031   16.948003   22.648688 H          1 MOL1         0.0960
      13    H9      18.604357   17.070616   22.776916 H          1 MOL1         0.0960
      14    C5      19.663589   18.743945   23.662421 C.3        1 MOL1        -0.1409
      15    H10     20.630373   19.247315   23.539611 H          1 MOL1         0.0960
      16    H11     18.880364   19.503587   23.532734 H          1 MOL1         0.0960
      17    C6      19.574097   18.148910   25.087687 C.3        1 MOL1        -0.1450
      18    H12     20.368089   17.404787   25.235494 H          1 MOL1         0.0960
      19    H13     18.620430   17.616336   25.200806 H          1 MOL1         0.0960
      20    C7      19.664358   19.223681   26.188217 C.3        1 MOL1         0.0172
      21    H14     18.880563   19.971029   26.038093 H          1 MOL1         0.0934
      22    H15     19.507621   18.756776   27.164430 H          1 MOL1         0.0934
      23    N1      20.998429   19.942853   26.232081 N.4        1 MOL1        -0.5956
      24    H16     21.775350   19.293877   26.394165 H          1 MOL1         0.3624
      25    H17     21.029725   20.640771   26.983273 H          1 MOL1         0.3624
      26    H18     21.192933   20.436463   25.355580 H          1 MOL1         0.3624
@<TRIPOS>BOND
    1     1     2    1
    2     1     3    1
    3     1     4    1
    4     1     5    1
    5     5     6    1
    6     5     7    1
    7     5     8    1
    8     8     9    1
    9     8    10    1
   10     8    11    1
   11    11    12    1
   12    11    13    1
   13    11    14    1
   14    14    15    1
   15    14    16    1
   16    14    17    1
   17    17    18    1
   18    17    19    1
   19    17    20    1
   20    20    21    1
   21    20    22    1
   22    20    23    1
   23    23    24    1
   24    23    25    1
   25    23    26    1
@<TRIPOS>SUBSTRUCTURE
       1 MOL1            1 RESIDUE      1      MOL     
@<SCITEGIC>MOL_PROPERTY
VM2 Rank
SciTegic.value.IntegerValue
136

@<SCITEGIC>MOL_PROPERTY
Conf_Id
SciTegic.value.IntegerValue
556

@<SCITEGIC>MOL_PROPERTY
Probability
SciTegic.value.DoubleValue
0.01

@<SCITEGIC>MOL_PROPERTY
Sum Probability
SciTegic.value.DoubleValue
99.70

@<SCITEGIC>MOL_PROPERTY
Delta G
SciTegic.value.DoubleValue
3.788

@<SCITEGIC>MOL_PROPERTY
G
SciTegic.value.DoubleValue
52.049

@<SCITEGIC>MOL_PROPERTY
E
SciTegic.value.DoubleValue
19.247

@<SCITEGIC>MOL_PROPERTY
-TS
SciTegic.value.DoubleValue
32.802

@<SCITEGIC>MOL_PROPERTY
U+W
SciTegic.value.DoubleValue
-2.215

@<SCITEGIC>MOL_PROPERTY
U
SciTegic.value.DoubleValue
51.677

@<SCITEGIC>MOL_PROPERTY
W
SciTegic.value.DoubleValue
-53.891

@<SCITEGIC>MOL_PROPERTY
W(PB)
SciTegic.value.DoubleValue
-56.164

@<SCITEGIC>MOL_PROPERTY
W(SA)
SciTegic.value.DoubleValue
2.273

@<SCITEGIC>MOL_PROPERTY
Valence
SciTegic.value.DoubleValue
5.252

@<SCITEGIC>MOL_PROPERTY
Coulomb
SciTegic.value.DoubleValue
45.637

@<SCITEGIC>MOL_PROPERTY
VdW
SciTegic.value.DoubleValue
0.787

@<SCITEGIC>MOL_PROPERTY
VdW6
SciTegic.value.DoubleValue
-7.893

@<SCITEGIC>MOL_PROPERTY
VdW12
SciTegic.value.DoubleValue
8.680

@<SCITEGIC>MOL_PROPERTY
Bond
SciTegic.value.DoubleValue
0.235

@<SCITEGIC>MOL_PROPERTY
Angle
SciTegic.value.DoubleValue
1.222

@<SCITEGIC>MOL_PROPERTY
Pdih
SciTegic.value.DoubleValue
3.795

@<SCITEGIC>MOL_PROPERTY
Idih
SciTegic.value.DoubleValue
0.000

@<SCITEGIC>MOL_PROPERTY
Tether
SciTegic.value.DoubleValue
0.000

@<TRIPOS>MOLECULE
guest-s14_vm2.mol2 : vm2 ligand conformer 137
          26          25           1
SMALL
USER_CHARGES
 
@<TRIPOS>ATOM
       1    C1      19.060761   20.005741   20.021259 C.3        1 MOL1        -0.2400
       2    H1      19.662802   20.923743   20.015016 H          1 MOL1         0.0971
       3    H2      18.821054   19.752998   18.980253 H          1 MOL1         0.0971
       4    H3      18.117953   20.218534   20.541897 H          1 MOL1         0.0971
       5    C2      19.821527   18.847918   20.701656 C.3        1 MOL1        -0.1385
       6    H4      20.741027   18.635605   20.138320 H          1 MOL1         0.0960
       7    H5      19.208471   17.936544   20.663048 H          1 MOL1         0.0960
       8    C3      20.172070   19.178320   22.169345 C.3        1 MOL1        -0.1409
       9    H6      20.787144   20.088160   22.198619 H          1 MOL1         0.0960
      10    H7      19.246809   19.402238   22.711062 H          1 MOL1         0.0960
      11    C4      20.935314   18.016113   22.850918 C.3        1 MOL1        -0.1409
      12    H8      21.828611   17.798006   22.249245 H          1 MOL1         0.0960
      13    H9      20.328775   17.100156   22.834722 H          1 MOL1         0.0960
      14    C5      21.396332   18.322588   24.300073 C.3        1 MOL1        -0.1409
      15    H10     22.299104   17.727767   24.496655 H          1 MOL1         0.0960
      16    H11     21.714014   19.370077   24.387628 H          1 MOL1         0.0960
      17    C6      20.364556   17.967217   25.403864 C.3        1 MOL1        -0.1450
      18    H12     20.835764   18.101487   26.386593 H          1 MOL1         0.0960
      19    H13     20.113443   16.900566   25.333666 H          1 MOL1         0.0960
      20    C7      19.058673   18.783952   25.370737 C.3        1 MOL1         0.0172
      21    H14     18.532341   18.603948   24.430833 H          1 MOL1         0.0934
      22    H15     18.408299   18.457408   26.186738 H          1 MOL1         0.0934
      23    N1      19.271767   20.277150   25.523147 N.4        1 MOL1        -0.5956
      24    H16     18.385541   20.793182   25.501559 H          1 MOL1         0.3624
      25    H17     19.860410   20.651801   24.773037 H          1 MOL1         0.3624
      26    H18     19.729849   20.505710   26.411351 H          1 MOL1         0.3624
@<TRIPOS>BOND
    1     1     2    1
    2     1     3    1
    3     1     4    1
    4     1     5    1
    5     5     6    1
    6     5     7    1
    7     5     8    1
    8     8     9    1
    9     8    10    1
   10     8    11    1
   11    11    12    1
   12    11    13    1
   13    11    14    1
   14    14    15    1
   15    14    16    1
   16    14    17    1
   17    17    18    1
   18    17    19    1
   19    17    20    1
   20    20    21    1
   21    20    22    1
   22    20    23    1
   23    23    24    1
   24    23    25    1
   25    23    26    1
@<TRIPOS>SUBSTRUCTURE
       1 MOL1            1 RESIDUE      1      MOL     
@<SCITEGIC>MOL_PROPERTY
VM2 Rank
SciTegic.value.IntegerValue
137

@<SCITEGIC>MOL_PROPERTY
Conf_Id
SciTegic.value.IntegerValue
1218

@<SCITEGIC>MOL_PROPERTY
Probability
SciTegic.value.DoubleValue
0.01

@<SCITEGIC>MOL_PROPERTY
Sum Probability
SciTegic.value.DoubleValue
99.72

@<SCITEGIC>MOL_PROPERTY
Delta G
SciTegic.value.DoubleValue
3.799

@<SCITEGIC>MOL_PROPERTY
G
SciTegic.value.DoubleValue
52.061

@<SCITEGIC>MOL_PROPERTY
E
SciTegic.value.DoubleValue
19.192

@<SCITEGIC>MOL_PROPERTY
-TS
SciTegic.value.DoubleValue
32.869

@<SCITEGIC>MOL_PROPERTY
U+W
SciTegic.value.DoubleValue
-2.270

@<SCITEGIC>MOL_PROPERTY
U
SciTegic.value.DoubleValue
51.830

@<SCITEGIC>MOL_PROPERTY
W
SciTegic.value.DoubleValue
-54.100

@<SCITEGIC>MOL_PROPERTY
W(PB)
SciTegic.value.DoubleValue
-56.379

@<SCITEGIC>MOL_PROPERTY
W(SA)
SciTegic.value.DoubleValue
2.279

@<SCITEGIC>MOL_PROPERTY
Valence
SciTegic.value.DoubleValue
4.864

@<SCITEGIC>MOL_PROPERTY
Coulomb
SciTegic.value.DoubleValue
46.522

@<SCITEGIC>MOL_PROPERTY
VdW
SciTegic.value.DoubleValue
0.444

@<SCITEGIC>MOL_PROPERTY
VdW6
SciTegic.value.DoubleValue
-8.266

@<SCITEGIC>MOL_PROPERTY
VdW12
SciTegic.value.DoubleValue
8.710

@<SCITEGIC>MOL_PROPERTY
Bond
SciTegic.value.DoubleValue
0.239

@<SCITEGIC>MOL_PROPERTY
Angle
SciTegic.value.DoubleValue
1.440

@<SCITEGIC>MOL_PROPERTY
Pdih
SciTegic.value.DoubleValue
3.185

@<SCITEGIC>MOL_PROPERTY
Idih
SciTegic.value.DoubleValue
0.000

@<SCITEGIC>MOL_PROPERTY
Tether
SciTegic.value.DoubleValue
0.000

@<TRIPOS>MOLECULE
guest-s14_vm2.mol2 : vm2 ligand conformer 138
          26          25           1
SMALL
USER_CHARGES
 
@<TRIPOS>ATOM
       1    C1      19.706840   19.627221   19.885074 C.3        1 MOL1        -0.2400
       2    H1      19.218895   20.545087   20.237826 H          1 MOL1         0.0971
       3    H2      20.015526   19.789609   18.844281 H          1 MOL1         0.0971
       4    H3      18.963731   18.820047   19.887208 H          1 MOL1         0.0971
       5    C2      20.928706   19.274704   20.763377 C.3        1 MOL1        -0.1385
       6    H4      21.690820   20.057247   20.642677 H          1 MOL1         0.0960
       7    H5      21.385832   18.342504   20.403131 H          1 MOL1         0.0960
       8    C3      20.584403   19.142463   22.266435 C.3        1 MOL1        -0.1409
       9    H6      21.515863   18.981879   22.826266 H          1 MOL1         0.0960
      10    H7      20.161427   20.092790   22.615732 H          1 MOL1         0.0960
      11    C4      19.599225   17.986709   22.568553 C.3        1 MOL1        -0.1409
      12    H8      19.929836   17.088356   22.029270 H          1 MOL1         0.0960
      13    H9      18.605724   18.233800   22.171189 H          1 MOL1         0.0960
      14    C5      19.470553   17.625420   24.071132 C.3        1 MOL1        -0.1409
      15    H10     18.802543   16.755954   24.142858 H          1 MOL1         0.0960
      16    H11     20.438343   17.282752   24.459350 H          1 MOL1         0.0960
      17    C6      18.885848   18.748772   24.968935 C.3        1 MOL1        -0.1450
      18    H12     18.420309   18.290928   25.851847 H          1 MOL1         0.0960
      19    H13     18.075859   19.263182   24.435081 H          1 MOL1         0.0960
      20    C7      19.917621   19.787496   25.457237 C.3        1 MOL1         0.0172
      21    H14     20.414342   20.259260   24.607997 H          1 MOL1         0.0934
      22    H15     19.400857   20.568504   26.021579 H          1 MOL1         0.0934
      23    N1      20.987803   19.206214   26.360258 N.4        1 MOL1        -0.5956
      24    H16     21.645825   19.924248   26.682149 H          1 MOL1         0.3624
      25    H17     21.538294   18.486528   25.882189 H          1 MOL1         0.3624
      26    H18     20.584680   18.773112   27.197433 H          1 MOL1         0.3624
@<TRIPOS>BOND
    1     1     2    1
    2     1     3    1
    3     1     4    1
    4     1     5    1
    5     5     6    1
    6     5     7    1
    7     5     8    1
    8     8     9    1
    9     8    10    1
   10     8    11    1
   11    11    12    1
   12    11    13    1
   13    11    14    1
   14    14    15    1
   15    14    16    1
   16    14    17    1
   17    17    18    1
   18    17    19    1
   19    17    20    1
   20    20    21    1
   21    20    22    1
   22    20    23    1
   23    23    24    1
   24    23    25    1
   25    23    26    1
@<TRIPOS>SUBSTRUCTURE
       1 MOL1            1 RESIDUE      1      MOL     
@<SCITEGIC>MOL_PROPERTY
VM2 Rank
SciTegic.value.IntegerValue
138

@<SCITEGIC>MOL_PROPERTY
Conf_Id
SciTegic.value.IntegerValue
422

@<SCITEGIC>MOL_PROPERTY
Probability
SciTegic.value.DoubleValue
0.01

@<SCITEGIC>MOL_PROPERTY
Sum Probability
SciTegic.value.DoubleValue
99.73

@<SCITEGIC>MOL_PROPERTY
Delta G
SciTegic.value.DoubleValue
3.801

@<SCITEGIC>MOL_PROPERTY
G
SciTegic.value.DoubleValue
52.063

@<SCITEGIC>MOL_PROPERTY
E
SciTegic.value.DoubleValue
19.188

@<SCITEGIC>MOL_PROPERTY
-TS
SciTegic.value.DoubleValue
32.875

@<SCITEGIC>MOL_PROPERTY
U+W
SciTegic.value.DoubleValue
-2.274

@<SCITEGIC>MOL_PROPERTY
U
SciTegic.value.DoubleValue
51.885

@<SCITEGIC>MOL_PROPERTY
W
SciTegic.value.DoubleValue
-54.159

@<SCITEGIC>MOL_PROPERTY
W(PB)
SciTegic.value.DoubleValue
-56.421

@<SCITEGIC>MOL_PROPERTY
W(SA)
SciTegic.value.DoubleValue
2.262

@<SCITEGIC>MOL_PROPERTY
Valence
SciTegic.value.DoubleValue
5.154

@<SCITEGIC>MOL_PROPERTY
Coulomb
SciTegic.value.DoubleValue
46.017

@<SCITEGIC>MOL_PROPERTY
VdW
SciTegic.value.DoubleValue
0.714

@<SCITEGIC>MOL_PROPERTY
VdW6
SciTegic.value.DoubleValue
-8.701

@<SCITEGIC>MOL_PROPERTY
VdW12
SciTegic.value.DoubleValue
9.415

@<SCITEGIC>MOL_PROPERTY
Bond
SciTegic.value.DoubleValue
0.265

@<SCITEGIC>MOL_PROPERTY
Angle
SciTegic.value.DoubleValue
1.543

@<SCITEGIC>MOL_PROPERTY
Pdih
SciTegic.value.DoubleValue
3.346

@<SCITEGIC>MOL_PROPERTY
Idih
SciTegic.value.DoubleValue
0.000

@<SCITEGIC>MOL_PROPERTY
Tether
SciTegic.value.DoubleValue
0.000

@<TRIPOS>MOLECULE
guest-s14_vm2.mol2 : vm2 ligand conformer 139
          26          25           1
SMALL
USER_CHARGES
 
@<TRIPOS>ATOM
       1    C1      19.642572   19.584366   19.882796 C.3        1 MOL1        -0.2400
       2    H1      20.675553   19.948945   19.944272 H          1 MOL1         0.0971
       3    H2      19.420791   19.396446   18.824304 H          1 MOL1         0.0971
       4    H3      18.974441   20.383470   20.229261 H          1 MOL1         0.0971
       5    C2      19.445992   18.296318   20.714017 C.3        1 MOL1        -0.1385
       6    H4      20.139694   17.520097   20.361886 H          1 MOL1         0.0960
       7    H5      18.433688   17.908212   20.534093 H          1 MOL1         0.0960
       8    C3      19.632619   18.514709   22.234771 C.3        1 MOL1        -0.1409
       9    H6      18.909252   19.266893   22.573886 H          1 MOL1         0.0960
      10    H7      19.388719   17.578675   22.755510 H          1 MOL1         0.0960
      11    C4      21.066778   18.955418   22.617635 C.3        1 MOL1        -0.1409
      12    H8      21.247867   19.977666   22.259562 H          1 MOL1         0.0960
      13    H9      21.787478   18.314545   22.091288 H          1 MOL1         0.0960
      14    C5      21.379411   18.885149   24.134920 C.3        1 MOL1        -0.1409
      15    H10     21.296701   17.849158   24.487956 H          1 MOL1         0.0960
      16    H11     22.436846   19.154350   24.264216 H          1 MOL1         0.0960
      17    C6      20.534977   19.836951   25.024221 C.3        1 MOL1        -0.1450
      18    H12     20.404995   20.800150   24.513291 H          1 MOL1         0.0960
      19    H13     21.097099   20.057014   25.941540 H          1 MOL1         0.0960
      20    C7      19.153258   19.283102   25.431713 C.3        1 MOL1         0.0172
      21    H14     18.612277   20.047920   25.995532 H          1 MOL1         0.0934
      22    H15     18.564487   19.038997   24.546130 H          1 MOL1         0.0934
      23    N1      19.225392   18.042987   26.300926 N.4        1 MOL1        -0.5956
      24    H16     19.692798   17.268664   25.819791 H          1 MOL1         0.3624
      25    H17     18.292638   17.711331   26.569543 H          1 MOL1         0.3624
      26    H18     19.742471   18.216706   27.168911 H          1 MOL1         0.3624
@<TRIPOS>BOND
    1     1     2    1
    2     1     3    1
    3     1     4    1
    4     1     5    1
    5     5     6    1
    6     5     7    1
    7     5     8    1
    8     8     9    1
    9     8    10    1
   10     8    11    1
   11    11    12    1
   12    11    13    1
   13    11    14    1
   14    14    15    1
   15    14    16    1
   16    14    17    1
   17    17    18    1
   18    17    19    1
   19    17    20    1
   20    20    21    1
   21    20    22    1
   22    20    23    1
   23    23    24    1
   24    23    25    1
   25    23    26    1
@<TRIPOS>SUBSTRUCTURE
       1 MOL1            1 RESIDUE      1      MOL     
@<SCITEGIC>MOL_PROPERTY
VM2 Rank
SciTegic.value.IntegerValue
139

@<SCITEGIC>MOL_PROPERTY
Conf_Id
SciTegic.value.IntegerValue
813

@<SCITEGIC>MOL_PROPERTY
Probability
SciTegic.value.DoubleValue
0.01

@<SCITEGIC>MOL_PROPERTY
Sum Probability
SciTegic.value.DoubleValue
99.74

@<SCITEGIC>MOL_PROPERTY
Delta G
SciTegic.value.DoubleValue
3.810

@<SCITEGIC>MOL_PROPERTY
G
SciTegic.value.DoubleValue
52.072

@<SCITEGIC>MOL_PROPERTY
E
SciTegic.value.DoubleValue
19.197

@<SCITEGIC>MOL_PROPERTY
-TS
SciTegic.value.DoubleValue
32.875

@<SCITEGIC>MOL_PROPERTY
U+W
SciTegic.value.DoubleValue
-2.265

@<SCITEGIC>MOL_PROPERTY
U
SciTegic.value.DoubleValue
51.886

@<SCITEGIC>MOL_PROPERTY
W
SciTegic.value.DoubleValue
-54.151

@<SCITEGIC>MOL_PROPERTY
W(PB)
SciTegic.value.DoubleValue
-56.400

@<SCITEGIC>MOL_PROPERTY
W(SA)
SciTegic.value.DoubleValue
2.249

@<SCITEGIC>MOL_PROPERTY
Valence
SciTegic.value.DoubleValue
5.153

@<SCITEGIC>MOL_PROPERTY
Coulomb
SciTegic.value.DoubleValue
46.018

@<SCITEGIC>MOL_PROPERTY
VdW
SciTegic.value.DoubleValue
0.715

@<SCITEGIC>MOL_PROPERTY
VdW6
SciTegic.value.DoubleValue
-8.701

@<SCITEGIC>MOL_PROPERTY
VdW12
SciTegic.value.DoubleValue
9.416

@<SCITEGIC>MOL_PROPERTY
Bond
SciTegic.value.DoubleValue
0.265

@<SCITEGIC>MOL_PROPERTY
Angle
SciTegic.value.DoubleValue
1.543

@<SCITEGIC>MOL_PROPERTY
Pdih
SciTegic.value.DoubleValue
3.345

@<SCITEGIC>MOL_PROPERTY
Idih
SciTegic.value.DoubleValue
0.000

@<SCITEGIC>MOL_PROPERTY
Tether
SciTegic.value.DoubleValue
0.000

@<TRIPOS>MOLECULE
guest-s14_vm2.mol2 : vm2 ligand conformer 140
          26          25           1
SMALL
USER_CHARGES
 
@<TRIPOS>ATOM
       1    C1      19.541234   20.322888   20.037264 C.3        1 MOL1        -0.2400
       2    H1      19.690467   21.256913   20.594543 H          1 MOL1         0.0971
       3    H2      19.916090   20.475886   19.016917 H          1 MOL1         0.0971
       4    H3      18.462184   20.130710   19.974485 H          1 MOL1         0.0971
       5    C2      20.275495   19.147639   20.716897 C.3        1 MOL1        -0.1385
       6    H4      20.136951   18.236537   20.118062 H          1 MOL1         0.0960
       7    H5      21.354866   19.353925   20.735215 H          1 MOL1         0.0960
       8    C3      19.765887   18.910170   22.155668 C.3        1 MOL1        -0.1409
       9    H6      19.897030   19.831787   22.732842 H          1 MOL1         0.0960
      10    H7      18.687573   18.701716   22.127982 H          1 MOL1         0.0960
      11    C4      20.503134   17.730871   22.836495 C.3        1 MOL1        -0.1409
      12    H8      21.583141   17.928578   22.876866 H          1 MOL1         0.0960
      13    H9      20.381801   16.842711   22.200878 H          1 MOL1         0.0960
      14    C5      19.973271   17.383249   24.252447 C.3        1 MOL1        -0.1409
      15    H10     18.882236   17.500878   24.292819 H          1 MOL1         0.0960
      16    H11     20.156788   16.313657   24.424926 H          1 MOL1         0.0960
      17    C6      20.652739   18.157440   25.413546 C.3        1 MOL1        -0.1450
      18    H12     21.734461   17.970469   25.388052 H          1 MOL1         0.0960
      19    H13     20.298772   17.747199   26.368655 H          1 MOL1         0.0960
      20    C7      20.415880   19.679731   25.416050 C.3        1 MOL1         0.0172
      21    H14     20.933033   20.123761   26.270956 H          1 MOL1         0.0934
      22    H15     20.831210   20.121231   24.507519 H          1 MOL1         0.0934
      23    N1      18.953361   20.067012   25.512632 N.4        1 MOL1        -0.5956
      24    H16     18.827699   21.085023   25.516298 H          1 MOL1         0.3624
      25    H17     18.522597   19.708991   26.371264 H          1 MOL1         0.3624
      26    H18     18.413129   19.696541   24.724959 H          1 MOL1         0.3624
@<TRIPOS>BOND
    1     1     2    1
    2     1     3    1
    3     1     4    1
    4     1     5    1
    5     5     6    1
    6     5     7    1
    7     5     8    1
    8     8     9    1
    9     8    10    1
   10     8    11    1
   11    11    12    1
   12    11    13    1
   13    11    14    1
   14    14    15    1
   15    14    16    1
   16    14    17    1
   17    17    18    1
   18    17    19    1
   19    17    20    1
   20    20    21    1
   21    20    22    1
   22    20    23    1
   23    23    24    1
   24    23    25    1
   25    23    26    1
@<TRIPOS>SUBSTRUCTURE
       1 MOL1            1 RESIDUE      1      MOL     
@<SCITEGIC>MOL_PROPERTY
VM2 Rank
SciTegic.value.IntegerValue
140

@<SCITEGIC>MOL_PROPERTY
Conf_Id
SciTegic.value.IntegerValue
1119

@<SCITEGIC>MOL_PROPERTY
Probability
SciTegic.value.DoubleValue
0.01

@<SCITEGIC>MOL_PROPERTY
Sum Probability
SciTegic.value.DoubleValue
99.75

@<SCITEGIC>MOL_PROPERTY
Delta G
SciTegic.value.DoubleValue
3.821

@<SCITEGIC>MOL_PROPERTY
G
SciTegic.value.DoubleValue
52.083

@<SCITEGIC>MOL_PROPERTY
E
SciTegic.value.DoubleValue
19.213

@<SCITEGIC>MOL_PROPERTY
-TS
SciTegic.value.DoubleValue
32.869

@<SCITEGIC>MOL_PROPERTY
U+W
SciTegic.value.DoubleValue
-2.249

@<SCITEGIC>MOL_PROPERTY
U
SciTegic.value.DoubleValue
51.830

@<SCITEGIC>MOL_PROPERTY
W
SciTegic.value.DoubleValue
-54.079

@<SCITEGIC>MOL_PROPERTY
W(PB)
SciTegic.value.DoubleValue
-56.360

@<SCITEGIC>MOL_PROPERTY
W(SA)
SciTegic.value.DoubleValue
2.281

@<SCITEGIC>MOL_PROPERTY
Valence
SciTegic.value.DoubleValue
4.864

@<SCITEGIC>MOL_PROPERTY
Coulomb
SciTegic.value.DoubleValue
46.522

@<SCITEGIC>MOL_PROPERTY
VdW
SciTegic.value.DoubleValue
0.444

@<SCITEGIC>MOL_PROPERTY
VdW6
SciTegic.value.DoubleValue
-8.266

@<SCITEGIC>MOL_PROPERTY
VdW12
SciTegic.value.DoubleValue
8.710

@<SCITEGIC>MOL_PROPERTY
Bond
SciTegic.value.DoubleValue
0.239

@<SCITEGIC>MOL_PROPERTY
Angle
SciTegic.value.DoubleValue
1.439

@<SCITEGIC>MOL_PROPERTY
Pdih
SciTegic.value.DoubleValue
3.186

@<SCITEGIC>MOL_PROPERTY
Idih
SciTegic.value.DoubleValue
0.000

@<SCITEGIC>MOL_PROPERTY
Tether
SciTegic.value.DoubleValue
0.000

@<TRIPOS>MOLECULE
guest-s14_vm2.mol2 : vm2 ligand conformer 141
          26          25           1
SMALL
USER_CHARGES
 
@<TRIPOS>ATOM
       1    C1      21.187343   19.814647   20.099797 C.3        1 MOL1        -0.2400
       2    H1      20.921336   19.234049   19.206847 H          1 MOL1         0.0971
       3    H2      20.729130   20.808300   20.010725 H          1 MOL1         0.0971
       4    H3      22.277277   19.945176   20.103932 H          1 MOL1         0.0971
       5    C2      20.719099   19.101522   21.386019 C.3        1 MOL1        -0.1385
       6    H4      21.037241   19.693994   22.253696 H          1 MOL1         0.0960
       7    H5      21.213392   18.122955   21.460918 H          1 MOL1         0.0960
       8    C3      19.184680   18.916875   21.409313 C.3        1 MOL1        -0.1409
       9    H6      18.699200   19.902393   21.426111 H          1 MOL1         0.0960
      10    H7      18.869122   18.437621   20.472265 H          1 MOL1         0.0960
      11    C4      18.658498   18.062881   22.591848 C.3        1 MOL1        -0.1409
      12    H8      19.051866   17.039366   22.522613 H          1 MOL1         0.0960
      13    H9      17.570249   17.969203   22.471921 H          1 MOL1         0.0960
      14    C5      18.939494   18.655388   23.997488 C.3        1 MOL1        -0.1409
      15    H10     18.988783   19.750559   23.936200 H          1 MOL1         0.0960
      16    H11     18.084013   18.425945   24.648003 H          1 MOL1         0.0960
      17    C6      20.215828   18.080890   24.663757 C.3        1 MOL1        -0.1450
      18    H12     21.102795   18.276688   24.050867 H          1 MOL1         0.0960
      19    H13     20.124767   16.988857   24.734095 H          1 MOL1         0.0960
      20    C7      20.445407   18.639010   26.081311 C.3        1 MOL1         0.0172
      21    H14     19.563365   18.449613   26.698985 H          1 MOL1         0.0934
      22    H15     21.297723   18.128986   26.538450 H          1 MOL1         0.0934
      23    N1      20.730650   20.127786   26.111468 N.4        1 MOL1        -0.5956
      24    H16     20.887938   20.465356   27.067309 H          1 MOL1         0.3624
      25    H17     19.952260   20.671214   25.725949 H          1 MOL1         0.3624
      26    H18     21.566625   20.366567   25.568420 H          1 MOL1         0.3624
@<TRIPOS>BOND
    1     1     2    1
    2     1     3    1
    3     1     4    1
    4     1     5    1
    5     5     6    1
    6     5     7    1
    7     5     8    1
    8     8     9    1
    9     8    10    1
   10     8    11    1
   11    11    12    1
   12    11    13    1
   13    11    14    1
   14    14    15    1
   15    14    16    1
   16    14    17    1
   17    17    18    1
   18    17    19    1
   19    17    20    1
   20    20    21    1
   21    20    22    1
   22    20    23    1
   23    23    24    1
   24    23    25    1
   25    23    26    1
@<TRIPOS>SUBSTRUCTURE
       1 MOL1            1 RESIDUE      1      MOL     
@<SCITEGIC>MOL_PROPERTY
VM2 Rank
SciTegic.value.IntegerValue
141

@<SCITEGIC>MOL_PROPERTY
Conf_Id
SciTegic.value.IntegerValue
1097

@<SCITEGIC>MOL_PROPERTY
Probability
SciTegic.value.DoubleValue
0.01

@<SCITEGIC>MOL_PROPERTY
Sum Probability
SciTegic.value.DoubleValue
99.76

@<SCITEGIC>MOL_PROPERTY
Delta G
SciTegic.value.DoubleValue
3.854

@<SCITEGIC>MOL_PROPERTY
G
SciTegic.value.DoubleValue
52.115

@<SCITEGIC>MOL_PROPERTY
E
SciTegic.value.DoubleValue
19.299

@<SCITEGIC>MOL_PROPERTY
-TS
SciTegic.value.DoubleValue
32.817

@<SCITEGIC>MOL_PROPERTY
U+W
SciTegic.value.DoubleValue
-2.163

@<SCITEGIC>MOL_PROPERTY
U
SciTegic.value.DoubleValue
51.953

@<SCITEGIC>MOL_PROPERTY
W
SciTegic.value.DoubleValue
-54.116

@<SCITEGIC>MOL_PROPERTY
W(PB)
SciTegic.value.DoubleValue
-56.402

@<SCITEGIC>MOL_PROPERTY
W(SA)
SciTegic.value.DoubleValue
2.286

@<SCITEGIC>MOL_PROPERTY
Valence
SciTegic.value.DoubleValue
5.280

@<SCITEGIC>MOL_PROPERTY
Coulomb
SciTegic.value.DoubleValue
45.973

@<SCITEGIC>MOL_PROPERTY
VdW
SciTegic.value.DoubleValue
0.700

@<SCITEGIC>MOL_PROPERTY
VdW6
SciTegic.value.DoubleValue
-7.998

@<SCITEGIC>MOL_PROPERTY
VdW12
SciTegic.value.DoubleValue
8.698

@<SCITEGIC>MOL_PROPERTY
Bond
SciTegic.value.DoubleValue
0.241

@<SCITEGIC>MOL_PROPERTY
Angle
SciTegic.value.DoubleValue
1.239

@<SCITEGIC>MOL_PROPERTY
Pdih
SciTegic.value.DoubleValue
3.800

@<SCITEGIC>MOL_PROPERTY
Idih
SciTegic.value.DoubleValue
0.000

@<SCITEGIC>MOL_PROPERTY
Tether
SciTegic.value.DoubleValue
0.000

@<TRIPOS>MOLECULE
guest-s14_vm2.mol2 : vm2 ligand conformer 142
          26          25           1
SMALL
USER_CHARGES
 
@<TRIPOS>ATOM
       1    C1      20.393533   20.108823   20.076163 C.3        1 MOL1        -0.2400
       2    H1      21.168097   20.283084   19.318148 H          1 MOL1         0.0971
       3    H2      19.453646   20.527670   19.693745 H          1 MOL1         0.0971
       4    H3      20.673192   20.672963   20.972699 H          1 MOL1         0.0971
       5    C2      20.246842   18.595953   20.361843 C.3        1 MOL1        -0.1385
       6    H4      21.211596   18.169671   20.670236 H          1 MOL1         0.0960
       7    H5      19.984523   18.097382   19.418163 H          1 MOL1         0.0960
       8    C3      19.153378   18.272241   21.412390 C.3        1 MOL1        -0.1409
       9    H6      18.367430   19.039736   21.391941 H          1 MOL1         0.0960
      10    H7      18.659991   17.336724   21.114395 H          1 MOL1         0.0960
      11    C4      19.675033   18.082709   22.860367 C.3        1 MOL1        -0.1409
      12    H8      20.380650   17.240903   22.885544 H          1 MOL1         0.0960
      13    H9      18.824156   17.786585   23.487613 H          1 MOL1         0.0960
      14    C5      20.351884   19.338239   23.463531 C.3        1 MOL1        -0.1409
      15    H10     21.255775   19.573679   22.887330 H          1 MOL1         0.0960
      16    H11     19.681685   20.204095   23.371847 H          1 MOL1         0.0960
      17    C6      20.761695   19.156053   24.944088 C.3        1 MOL1        -0.1450
      18    H12     21.339702   20.033668   25.262906 H          1 MOL1         0.0960
      19    H13     21.428961   18.289004   25.038828 H          1 MOL1         0.0960
      20    C7      19.552182   18.985827   25.882640 C.3        1 MOL1         0.0172
      21    H14     18.887841   19.848849   25.786601 H          1 MOL1         0.0934
      22    H15     18.992621   18.088048   25.608273 H          1 MOL1         0.0934
      23    N1      19.946454   18.859155   27.339979 N.4        1 MOL1        -0.5956
      24    H16     20.552382   18.048265   27.502777 H          1 MOL1         0.3624
      25    H17     19.127754   18.747047   27.947881 H          1 MOL1         0.3624
      26    H18     20.453415   19.686185   27.671948 H          1 MOL1         0.3624
@<TRIPOS>BOND
    1     1     2    1
    2     1     3    1
    3     1     4    1
    4     1     5    1
    5     5     6    1
    6     5     7    1
    7     5     8    1
    8     8     9    1
    9     8    10    1
   10     8    11    1
   11    11    12    1
   12    11    13    1
   13    11    14    1
   14    14    15    1
   15    14    16    1
   16    14    17    1
   17    17    18    1
   18    17    19    1
   19    17    20    1
   20    20    21    1
   21    20    22    1
   22    20    23    1
   23    23    24    1
   24    23    25    1
   25    23    26    1
@<TRIPOS>SUBSTRUCTURE
       1 MOL1            1 RESIDUE      1      MOL     
@<SCITEGIC>MOL_PROPERTY
VM2 Rank
SciTegic.value.IntegerValue
142

@<SCITEGIC>MOL_PROPERTY
Conf_Id
SciTegic.value.IntegerValue
547

@<SCITEGIC>MOL_PROPERTY
Probability
SciTegic.value.DoubleValue
0.01

@<SCITEGIC>MOL_PROPERTY
Sum Probability
SciTegic.value.DoubleValue
99.77

@<SCITEGIC>MOL_PROPERTY
Delta G
SciTegic.value.DoubleValue
3.905

@<SCITEGIC>MOL_PROPERTY
G
SciTegic.value.DoubleValue
52.166

@<SCITEGIC>MOL_PROPERTY
E
SciTegic.value.DoubleValue
19.384

@<SCITEGIC>MOL_PROPERTY
-TS
SciTegic.value.DoubleValue
32.782

@<SCITEGIC>MOL_PROPERTY
U+W
SciTegic.value.DoubleValue
-2.078

@<SCITEGIC>MOL_PROPERTY
U
SciTegic.value.DoubleValue
51.397

@<SCITEGIC>MOL_PROPERTY
W
SciTegic.value.DoubleValue
-53.475

@<SCITEGIC>MOL_PROPERTY
W(PB)
SciTegic.value.DoubleValue
-55.760

@<SCITEGIC>MOL_PROPERTY
W(SA)
SciTegic.value.DoubleValue
2.285

@<SCITEGIC>MOL_PROPERTY
Valence
SciTegic.value.DoubleValue
5.541

@<SCITEGIC>MOL_PROPERTY
Coulomb
SciTegic.value.DoubleValue
45.028

@<SCITEGIC>MOL_PROPERTY
VdW
SciTegic.value.DoubleValue
0.828

@<SCITEGIC>MOL_PROPERTY
VdW6
SciTegic.value.DoubleValue
-7.846

@<SCITEGIC>MOL_PROPERTY
VdW12
SciTegic.value.DoubleValue
8.674

@<SCITEGIC>MOL_PROPERTY
Bond
SciTegic.value.DoubleValue
0.240

@<SCITEGIC>MOL_PROPERTY
Angle
SciTegic.value.DoubleValue
1.341

@<SCITEGIC>MOL_PROPERTY
Pdih
SciTegic.value.DoubleValue
3.960

@<SCITEGIC>MOL_PROPERTY
Idih
SciTegic.value.DoubleValue
0.000

@<SCITEGIC>MOL_PROPERTY
Tether
SciTegic.value.DoubleValue
0.000

@<TRIPOS>MOLECULE
guest-s14_vm2.mol2 : vm2 ligand conformer 143
          26          25           1
SMALL
USER_CHARGES
 
@<TRIPOS>ATOM
       1    C1      19.065131   18.377012   20.222805 C.3        1 MOL1        -0.2400
       2    H1      18.377832   19.230479   20.286427 H          1 MOL1         0.0971
       3    H2      18.850366   17.841840   19.288814 H          1 MOL1         0.0971
       4    H3      18.848807   17.690681   21.050789 H          1 MOL1         0.0971
       5    C2      20.536942   18.843625   20.250977 C.3        1 MOL1        -0.1385
       6    H4      20.749915   19.393575   19.323639 H          1 MOL1         0.0960
       7    H5      21.197634   17.965481   20.242188 H          1 MOL1         0.0960
       8    C3      20.896180   19.751589   21.454902 C.3        1 MOL1        -0.1409
       9    H6      21.944876   20.057508   21.336257 H          1 MOL1         0.0960
      10    H7      20.310915   20.680605   21.415584 H          1 MOL1         0.0960
      11    C4      20.743602   19.076886   22.843115 C.3        1 MOL1        -0.1409
      12    H8      21.550932   19.443007   23.491352 H          1 MOL1         0.0960
      13    H9      20.894170   17.992387   22.752163 H          1 MOL1         0.0960
      14    C5      19.385046   19.379221   23.526370 C.3        1 MOL1        -0.1409
      15    H10     19.296614   20.459782   23.705178 H          1 MOL1         0.0960
      16    H11     18.558813   19.113312   22.856490 H          1 MOL1         0.0960
      17    C6      19.197227   18.621453   24.861670 C.3        1 MOL1        -0.1450
      18    H12     19.256871   17.539589   24.682829 H          1 MOL1         0.0960
      19    H13     18.188097   18.821378   25.245868 H          1 MOL1         0.0960
      20    C7      20.231314   19.027755   25.928368 C.3        1 MOL1         0.0172
      21    H14     21.238800   18.792272   25.575904 H          1 MOL1         0.0934
      22    H15     20.171565   20.104707   26.107194 H          1 MOL1         0.0934
      23    N1      20.025559   18.321460   27.252795 N.4        1 MOL1        -0.5956
      24    H16     20.096279   17.303055   27.157789 H          1 MOL1         0.3624
      25    H17     19.104276   18.523836   27.654628 H          1 MOL1         0.3624
      26    H18     20.723623   18.605702   27.948703 H          1 MOL1         0.3624
@<TRIPOS>BOND
    1     1     2    1
    2     1     3    1
    3     1     4    1
    4     1     5    1
    5     5     6    1
    6     5     7    1
    7     5     8    1
    8     8     9    1
    9     8    10    1
   10     8    11    1
   11    11    12    1
   12    11    13    1
   13    11    14    1
   14    14    15    1
   15    14    16    1
   16    14    17    1
   17    17    18    1
   18    17    19    1
   19    17    20    1
   20    20    21    1
   21    20    22    1
   22    20    23    1
   23    23    24    1
   24    23    25    1
   25    23    26    1
@<TRIPOS>SUBSTRUCTURE
       1 MOL1            1 RESIDUE      1      MOL     
@<SCITEGIC>MOL_PROPERTY
VM2 Rank
SciTegic.value.IntegerValue
143

@<SCITEGIC>MOL_PROPERTY
Conf_Id
SciTegic.value.IntegerValue
280

@<SCITEGIC>MOL_PROPERTY
Probability
SciTegic.value.DoubleValue
0.01

@<SCITEGIC>MOL_PROPERTY
Sum Probability
SciTegic.value.DoubleValue
99.79

@<SCITEGIC>MOL_PROPERTY
Delta G
SciTegic.value.DoubleValue
3.922

@<SCITEGIC>MOL_PROPERTY
G
SciTegic.value.DoubleValue
52.183

@<SCITEGIC>MOL_PROPERTY
E
SciTegic.value.DoubleValue
19.359

@<SCITEGIC>MOL_PROPERTY
-TS
SciTegic.value.DoubleValue
32.824

@<SCITEGIC>MOL_PROPERTY
U+W
SciTegic.value.DoubleValue
-2.102

@<SCITEGIC>MOL_PROPERTY
U
SciTegic.value.DoubleValue
51.310

@<SCITEGIC>MOL_PROPERTY
W
SciTegic.value.DoubleValue
-53.412

@<SCITEGIC>MOL_PROPERTY
W(PB)
SciTegic.value.DoubleValue
-55.696

@<SCITEGIC>MOL_PROPERTY
W(SA)
SciTegic.value.DoubleValue
2.284

@<SCITEGIC>MOL_PROPERTY
Valence
SciTegic.value.DoubleValue
5.462

@<SCITEGIC>MOL_PROPERTY
Coulomb
SciTegic.value.DoubleValue
45.075

@<SCITEGIC>MOL_PROPERTY
VdW
SciTegic.value.DoubleValue
0.773

@<SCITEGIC>MOL_PROPERTY
VdW6
SciTegic.value.DoubleValue
-7.908

@<SCITEGIC>MOL_PROPERTY
VdW12
SciTegic.value.DoubleValue
8.681

@<SCITEGIC>MOL_PROPERTY
Bond
SciTegic.value.DoubleValue
0.240

@<SCITEGIC>MOL_PROPERTY
Angle
SciTegic.value.DoubleValue
1.238

@<SCITEGIC>MOL_PROPERTY
Pdih
SciTegic.value.DoubleValue
3.984

@<SCITEGIC>MOL_PROPERTY
Idih
SciTegic.value.DoubleValue
0.000

@<SCITEGIC>MOL_PROPERTY
Tether
SciTegic.value.DoubleValue
0.000

@<TRIPOS>MOLECULE
guest-s14_vm2.mol2 : vm2 ligand conformer 144
          26          25           1
SMALL
USER_CHARGES
 
@<TRIPOS>ATOM
       1    C1      18.624856   19.311776   20.679703 C.3        1 MOL1        -0.2400
       2    H1      18.169203   18.347764   20.418955 H          1 MOL1         0.0971
       3    H2      18.274837   19.599284   21.678924 H          1 MOL1         0.0971
       4    H3      18.252155   20.062346   19.970777 H          1 MOL1         0.0971
       5    C2      20.167127   19.231056   20.621233 C.3        1 MOL1        -0.1385
       6    H4      20.599755   20.199176   20.907244 H          1 MOL1         0.0960
       7    H5      20.473011   19.061142   19.579495 H          1 MOL1         0.0960
       8    C3      20.759232   18.099524   21.499713 C.3        1 MOL1        -0.1409
       9    H6      20.400449   17.131913   21.122697 H          1 MOL1         0.0960
      10    H7      21.850294   18.085807   21.370999 H          1 MOL1         0.0960
      11    C4      20.430883   18.198285   23.011679 C.3        1 MOL1        -0.1409
      12    H8      20.894142   17.342966   23.522446 H          1 MOL1         0.0960
      13    H9      19.348333   18.097355   23.151209 H          1 MOL1         0.0960
      14    C5      20.931427   19.511733   23.662421 C.3        1 MOL1        -0.1409
      15    H10     21.973785   19.682553   23.359983 H          1 MOL1         0.0960
      16    H11     20.354890   20.362315   23.274804 H          1 MOL1         0.0960
      17    C6      20.869423   19.521896   25.211138 C.3        1 MOL1        -0.1450
      18    H12     21.332810   20.454247   25.560163 H          1 MOL1         0.0960
      19    H13     21.480596   18.708637   25.624535 H          1 MOL1         0.0960
      20    C7      19.442213   19.460679   25.793945 C.3        1 MOL1         0.0172
      21    H14     19.458532   19.848585   26.816076 H          1 MOL1         0.0934
      22    H15     18.772643   20.091188   25.202829 H          1 MOL1         0.0934
      23    N1      18.855839   18.064050   25.861168 N.4        1 MOL1        -0.5956
      24    H16     18.798129   17.631261   24.935270 H          1 MOL1         0.3624
      25    H17     17.908071   18.068301   26.253706 H          1 MOL1         0.3624
      26    H18     19.420347   17.444072   26.451096 H          1 MOL1         0.3624
@<TRIPOS>BOND
    1     1     2    1
    2     1     3    1
    3     1     4    1
    4     1     5    1
    5     5     6    1
    6     5     7    1
    7     5     8    1
    8     8     9    1
    9     8    10    1
   10     8    11    1
   11    11    12    1
   12    11    13    1
   13    11    14    1
   14    14    15    1
   15    14    16    1
   16    14    17    1
   17    17    18    1
   18    17    19    1
   19    17    20    1
   20    20    21    1
   21    20    22    1
   22    20    23    1
   23    23    24    1
   24    23    25    1
   25    23    26    1
@<TRIPOS>SUBSTRUCTURE
       1 MOL1            1 RESIDUE      1      MOL     
@<SCITEGIC>MOL_PROPERTY
VM2 Rank
SciTegic.value.IntegerValue
144

@<SCITEGIC>MOL_PROPERTY
Conf_Id
SciTegic.value.IntegerValue
554

@<SCITEGIC>MOL_PROPERTY
Probability
SciTegic.value.DoubleValue
0.01

@<SCITEGIC>MOL_PROPERTY
Sum Probability
SciTegic.value.DoubleValue
99.79

@<SCITEGIC>MOL_PROPERTY
Delta G
SciTegic.value.DoubleValue
3.944

@<SCITEGIC>MOL_PROPERTY
G
SciTegic.value.DoubleValue
52.205

@<SCITEGIC>MOL_PROPERTY
E
SciTegic.value.DoubleValue
19.260

@<SCITEGIC>MOL_PROPERTY
-TS
SciTegic.value.DoubleValue
32.946

@<SCITEGIC>MOL_PROPERTY
U+W
SciTegic.value.DoubleValue
-2.202

@<SCITEGIC>MOL_PROPERTY
U
SciTegic.value.DoubleValue
51.945

@<SCITEGIC>MOL_PROPERTY
W
SciTegic.value.DoubleValue
-54.147

@<SCITEGIC>MOL_PROPERTY
W(PB)
SciTegic.value.DoubleValue
-56.366

@<SCITEGIC>MOL_PROPERTY
W(SA)
SciTegic.value.DoubleValue
2.219

@<SCITEGIC>MOL_PROPERTY
Valence
SciTegic.value.DoubleValue
4.646

@<SCITEGIC>MOL_PROPERTY
Coulomb
SciTegic.value.DoubleValue
46.716

@<SCITEGIC>MOL_PROPERTY
VdW
SciTegic.value.DoubleValue
0.583

@<SCITEGIC>MOL_PROPERTY
VdW6
SciTegic.value.DoubleValue
-8.945

@<SCITEGIC>MOL_PROPERTY
VdW12
SciTegic.value.DoubleValue
9.528

@<SCITEGIC>MOL_PROPERTY
Bond
SciTegic.value.DoubleValue
0.266

@<SCITEGIC>MOL_PROPERTY
Angle
SciTegic.value.DoubleValue
1.504

@<SCITEGIC>MOL_PROPERTY
Pdih
SciTegic.value.DoubleValue
2.877

@<SCITEGIC>MOL_PROPERTY
Idih
SciTegic.value.DoubleValue
0.000

@<SCITEGIC>MOL_PROPERTY
Tether
SciTegic.value.DoubleValue
0.000

@<TRIPOS>MOLECULE
guest-s14_vm2.mol2 : vm2 ligand conformer 145
          26          25           1
SMALL
USER_CHARGES
 
@<TRIPOS>ATOM
       1    C1      20.594595   17.969287   19.850206 C.3        1 MOL1        -0.2400
       2    H1      21.381389   18.585054   19.395235 H          1 MOL1         0.0971
       3    H2      20.903940   16.918720   19.775187 H          1 MOL1         0.0971
       4    H3      19.677973   18.093878   19.258995 H          1 MOL1         0.0971
       5    C2      20.361840   18.364853   21.323838 C.3        1 MOL1        -0.1385
       6    H4      21.287136   18.205456   21.894798 H          1 MOL1         0.0960
       7    H5      19.597837   17.701952   21.750461 H          1 MOL1         0.0960
       8    C3      19.911956   19.837731   21.454680 C.3        1 MOL1        -0.1409
       9    H6      20.616607   20.475596   20.903377 H          1 MOL1         0.0960
      10    H7      18.936974   19.966455   20.964715 H          1 MOL1         0.0960
      11    C4      19.829358   20.356015   22.913692 C.3        1 MOL1        -0.1409
      12    H8      19.551341   21.418127   22.868878 H          1 MOL1         0.0960
      13    H9      20.825569   20.333835   23.373680 H          1 MOL1         0.0960
      14    C5      18.788735   19.625441   23.805889 C.3        1 MOL1        -0.1409
      15    H10     18.337212   20.357044   24.490414 H          1 MOL1         0.0960
      16    H11     17.962575   19.255603   23.183167 H          1 MOL1         0.0960
      17    C6      19.363353   18.464015   24.656128 C.3        1 MOL1        -0.1450
      18    H12     19.855129   17.722167   24.017157 H          1 MOL1         0.0960
      19    H13     18.531395   17.945081   25.150462 H          1 MOL1         0.0960
      20    C7      20.352550   18.951357   25.731845 C.3        1 MOL1         0.0172
      21    H14     21.209401   19.436201   25.257611 H          1 MOL1         0.0934
      22    H15     19.860080   19.680813   26.380483 H          1 MOL1         0.0934
      23    N1      20.878612   17.830300   26.604722 N.4        1 MOL1        -0.5956
      24    H16     21.533568   18.175810   27.314672 H          1 MOL1         0.3624
      25    H17     21.378106   17.121749   26.057428 H          1 MOL1         0.3624
      26    H18     20.123793   17.349119   27.104618 H          1 MOL1         0.3624
@<TRIPOS>BOND
    1     1     2    1
    2     1     3    1
    3     1     4    1
    4     1     5    1
    5     5     6    1
    6     5     7    1
    7     5     8    1
    8     8     9    1
    9     8    10    1
   10     8    11    1
   11    11    12    1
   12    11    13    1
   13    11    14    1
   14    14    15    1
   15    14    16    1
   16    14    17    1
   17    17    18    1
   18    17    19    1
   19    17    20    1
   20    20    21    1
   21    20    22    1
   22    20    23    1
   23    23    24    1
   24    23    25    1
   25    23    26    1
@<TRIPOS>SUBSTRUCTURE
       1 MOL1            1 RESIDUE      1      MOL     
@<SCITEGIC>MOL_PROPERTY
VM2 Rank
SciTegic.value.IntegerValue
145

@<SCITEGIC>MOL_PROPERTY
Conf_Id
SciTegic.value.IntegerValue
1257

@<SCITEGIC>MOL_PROPERTY
Probability
SciTegic.value.DoubleValue
0.01

@<SCITEGIC>MOL_PROPERTY
Sum Probability
SciTegic.value.DoubleValue
99.80

@<SCITEGIC>MOL_PROPERTY
Delta G
SciTegic.value.DoubleValue
3.977

@<SCITEGIC>MOL_PROPERTY
G
SciTegic.value.DoubleValue
52.238

@<SCITEGIC>MOL_PROPERTY
E
SciTegic.value.DoubleValue
19.461

@<SCITEGIC>MOL_PROPERTY
-TS
SciTegic.value.DoubleValue
32.777

@<SCITEGIC>MOL_PROPERTY
U+W
SciTegic.value.DoubleValue
-2.001

@<SCITEGIC>MOL_PROPERTY
U
SciTegic.value.DoubleValue
51.979

@<SCITEGIC>MOL_PROPERTY
W
SciTegic.value.DoubleValue
-53.980

@<SCITEGIC>MOL_PROPERTY
W(PB)
SciTegic.value.DoubleValue
-56.267

@<SCITEGIC>MOL_PROPERTY
W(SA)
SciTegic.value.DoubleValue
2.287

@<SCITEGIC>MOL_PROPERTY
Valence
SciTegic.value.DoubleValue
5.609

@<SCITEGIC>MOL_PROPERTY
Coulomb
SciTegic.value.DoubleValue
45.670

@<SCITEGIC>MOL_PROPERTY
VdW
SciTegic.value.DoubleValue
0.701

@<SCITEGIC>MOL_PROPERTY
VdW6
SciTegic.value.DoubleValue
-7.955

@<SCITEGIC>MOL_PROPERTY
VdW12
SciTegic.value.DoubleValue
8.655

@<SCITEGIC>MOL_PROPERTY
Bond
SciTegic.value.DoubleValue
0.249

@<SCITEGIC>MOL_PROPERTY
Angle
SciTegic.value.DoubleValue
1.398

@<SCITEGIC>MOL_PROPERTY
Pdih
SciTegic.value.DoubleValue
3.962

@<SCITEGIC>MOL_PROPERTY
Idih
SciTegic.value.DoubleValue
0.000

@<SCITEGIC>MOL_PROPERTY
Tether
SciTegic.value.DoubleValue
0.000

@<TRIPOS>MOLECULE
guest-s14_vm2.mol2 : vm2 ligand conformer 146
          26          25           1
SMALL
USER_CHARGES
 
@<TRIPOS>ATOM
       1    C1      20.817770   18.116767   19.857263 C.3        1 MOL1        -0.2400
       2    H1      21.664084   17.419998   19.800015 H          1 MOL1         0.0971
       3    H2      19.964010   17.651808   19.347244 H          1 MOL1         0.0971
       4    H3      21.091681   19.025894   19.306163 H          1 MOL1         0.0971
       5    C2      20.477459   18.441045   21.327390 C.3        1 MOL1        -0.1385
       6    H4      21.366818   18.867436   21.809445 H          1 MOL1         0.0960
       7    H5      20.233155   17.510818   21.858962 H          1 MOL1         0.0960
       8    C3      19.295999   19.431836   21.434048 C.3        1 MOL1        -0.1409
       9    H6      19.584123   20.392970   20.986351 H          1 MOL1         0.0960
      10    H7      18.458687   19.053748   20.831307 H          1 MOL1         0.0960
      11    C4      18.784922   19.667470   22.878841 C.3        1 MOL1        -0.1409
      12    H8      18.392131   18.729822   23.292427 H          1 MOL1         0.0960
      13    H9      17.921098   20.343546   22.814682 H          1 MOL1         0.0960
      14    C5      19.823741   20.307029   23.840331 C.3        1 MOL1        -0.1409
      15    H10     20.517424   20.938384   23.268231 H          1 MOL1         0.0960
      16    H11     19.297945   20.989794   24.522283 H          1 MOL1         0.0960
      17    C6      20.624340   19.294570   24.698207 C.3        1 MOL1        -0.1450
      18    H12     21.405515   19.838172   25.246001 H          1 MOL1         0.0960
      19    H13     21.141237   18.569189   24.060152 H          1 MOL1         0.0960
      20    C7      19.737605   18.546526   25.711773 C.3        1 MOL1         0.0172
      21    H14     19.232019   19.267361   26.359959 H          1 MOL1         0.0934
      22    H15     18.976890   17.966108   25.183953 H          1 MOL1         0.0934
      23    N1      20.519163   17.593756   26.593148 N.4        1 MOL1        -0.5956
      24    H16     21.235172   18.081181   27.141719 H          1 MOL1         0.3624
      25    H17     20.998066   16.871620   26.045202 H          1 MOL1         0.3624
      26    H18     19.911203   17.107626   27.261307 H          1 MOL1         0.3624
@<TRIPOS>BOND
    1     1     2    1
    2     1     3    1
    3     1     4    1
    4     1     5    1
    5     5     6    1
    6     5     7    1
    7     5     8    1
    8     8     9    1
    9     8    10    1
   10     8    11    1
   11    11    12    1
   12    11    13    1
   13    11    14    1
   14    14    15    1
   15    14    16    1
   16    14    17    1
   17    17    18    1
   18    17    19    1
   19    17    20    1
   20    20    21    1
   21    20    22    1
   22    20    23    1
   23    23    24    1
   24    23    25    1
   25    23    26    1
@<TRIPOS>SUBSTRUCTURE
       1 MOL1            1 RESIDUE      1      MOL     
@<SCITEGIC>MOL_PROPERTY
VM2 Rank
SciTegic.value.IntegerValue
146

@<SCITEGIC>MOL_PROPERTY
Conf_Id
SciTegic.value.IntegerValue
154

@<SCITEGIC>MOL_PROPERTY
Probability
SciTegic.value.DoubleValue
0.01

@<SCITEGIC>MOL_PROPERTY
Sum Probability
SciTegic.value.DoubleValue
99.81

@<SCITEGIC>MOL_PROPERTY
Delta G
SciTegic.value.DoubleValue
4.001

@<SCITEGIC>MOL_PROPERTY
G
SciTegic.value.DoubleValue
52.262

@<SCITEGIC>MOL_PROPERTY
E
SciTegic.value.DoubleValue
19.485

@<SCITEGIC>MOL_PROPERTY
-TS
SciTegic.value.DoubleValue
32.778

@<SCITEGIC>MOL_PROPERTY
U+W
SciTegic.value.DoubleValue
-1.977

@<SCITEGIC>MOL_PROPERTY
U
SciTegic.value.DoubleValue
51.979

@<SCITEGIC>MOL_PROPERTY
W
SciTegic.value.DoubleValue
-53.956

@<SCITEGIC>MOL_PROPERTY
W(PB)
SciTegic.value.DoubleValue
-56.240

@<SCITEGIC>MOL_PROPERTY
W(SA)
SciTegic.value.DoubleValue
2.284

@<SCITEGIC>MOL_PROPERTY
Valence
SciTegic.value.DoubleValue
5.609

@<SCITEGIC>MOL_PROPERTY
Coulomb
SciTegic.value.DoubleValue
45.669

@<SCITEGIC>MOL_PROPERTY
VdW
SciTegic.value.DoubleValue
0.700

@<SCITEGIC>MOL_PROPERTY
VdW6
SciTegic.value.DoubleValue
-7.954

@<SCITEGIC>MOL_PROPERTY
VdW12
SciTegic.value.DoubleValue
8.654

@<SCITEGIC>MOL_PROPERTY
Bond
SciTegic.value.DoubleValue
0.249

@<SCITEGIC>MOL_PROPERTY
Angle
SciTegic.value.DoubleValue
1.396

@<SCITEGIC>MOL_PROPERTY
Pdih
SciTegic.value.DoubleValue
3.963

@<SCITEGIC>MOL_PROPERTY
Idih
SciTegic.value.DoubleValue
0.000

@<SCITEGIC>MOL_PROPERTY
Tether
SciTegic.value.DoubleValue
0.000

@<TRIPOS>MOLECULE
guest-s14_vm2.mol2 : vm2 ligand conformer 147
          26          25           1
SMALL
USER_CHARGES
 
@<TRIPOS>ATOM
       1    C1      19.935750   17.499953   20.329683 C.3        1 MOL1        -0.2400
       2    H1      20.278263   17.997271   19.412854 H          1 MOL1         0.0971
       3    H2      20.316089   16.470300   20.316409 H          1 MOL1         0.0971
       4    H3      18.839153   17.454525   20.304837 H          1 MOL1         0.0971
       5    C2      20.431115   18.247778   21.585537 C.3        1 MOL1        -0.1385
       6    H4      21.529983   18.247449   21.596602 H          1 MOL1         0.0960
       7    H5      20.108178   17.697511   22.476354 H          1 MOL1         0.0960
       8    C3      19.911130   19.705105   21.622272 C.3        1 MOL1        -0.1409
       9    H6      20.248448   20.208494   20.705602 H          1 MOL1         0.0960
      10    H7      18.813113   19.720246   21.588539 H          1 MOL1         0.0960
      11    C4      20.419285   20.522219   22.839202 C.3        1 MOL1        -0.1409
      12    H8      20.553366   21.562660   22.512168 H          1 MOL1         0.0960
      13    H9      21.419516   20.182648   23.139763 H          1 MOL1         0.0960
      14    C5      19.457092   20.545929   24.057569 C.3        1 MOL1        -0.1409
      15    H10     19.864249   21.235904   24.809660 H          1 MOL1         0.0960
      16    H11     18.495714   20.977441   23.746510 H          1 MOL1         0.0960
      17    C6      19.196591   19.178698   24.733260 C.3        1 MOL1        -0.1450
      18    H12     18.674872   18.510125   24.037597 H          1 MOL1         0.0960
      19    H13     18.514281   19.328738   25.580449 H          1 MOL1         0.0960
      20    C7      20.488485   18.514036   25.244471 C.3        1 MOL1         0.0172
      21    H14     21.170776   18.340031   24.408566 H          1 MOL1         0.0934
      22    H15     20.983727   19.175897   25.960023 H          1 MOL1         0.0934
      23    N1      20.241553   17.185283   25.929006 N.4        1 MOL1        -0.5956
      24    H16     19.629209   17.285073   26.745246 H          1 MOL1         0.3624
      25    H17     21.113982   16.760224   26.261414 H          1 MOL1         0.3624
      26    H18     19.798704   16.507036   25.300790 H          1 MOL1         0.3624
@<TRIPOS>BOND
    1     1     2    1
    2     1     3    1
    3     1     4    1
    4     1     5    1
    5     5     6    1
    6     5     7    1
    7     5     8    1
    8     8     9    1
    9     8    10    1
   10     8    11    1
   11    11    12    1
   12    11    13    1
   13    11    14    1
   14    14    15    1
   15    14    16    1
   16    14    17    1
   17    17    18    1
   18    17    19    1
   19    17    20    1
   20    20    21    1
   21    20    22    1
   22    20    23    1
   23    23    24    1
   24    23    25    1
   25    23    26    1
@<TRIPOS>SUBSTRUCTURE
       1 MOL1            1 RESIDUE      1      MOL     
@<SCITEGIC>MOL_PROPERTY
VM2 Rank
SciTegic.value.IntegerValue
147

@<SCITEGIC>MOL_PROPERTY
Conf_Id
SciTegic.value.IntegerValue
560

@<SCITEGIC>MOL_PROPERTY
Probability
SciTegic.value.DoubleValue
0.01

@<SCITEGIC>MOL_PROPERTY
Sum Probability
SciTegic.value.DoubleValue
99.82

@<SCITEGIC>MOL_PROPERTY
Delta G
SciTegic.value.DoubleValue
4.014

@<SCITEGIC>MOL_PROPERTY
G
SciTegic.value.DoubleValue
52.275

@<SCITEGIC>MOL_PROPERTY
E
SciTegic.value.DoubleValue
19.189

@<SCITEGIC>MOL_PROPERTY
-TS
SciTegic.value.DoubleValue
33.086

@<SCITEGIC>MOL_PROPERTY
U+W
SciTegic.value.DoubleValue
-2.273

@<SCITEGIC>MOL_PROPERTY
U
SciTegic.value.DoubleValue
52.111

@<SCITEGIC>MOL_PROPERTY
W
SciTegic.value.DoubleValue
-54.383

@<SCITEGIC>MOL_PROPERTY
W(PB)
SciTegic.value.DoubleValue
-56.638

@<SCITEGIC>MOL_PROPERTY
W(SA)
SciTegic.value.DoubleValue
2.255

@<SCITEGIC>MOL_PROPERTY
Valence
SciTegic.value.DoubleValue
5.498

@<SCITEGIC>MOL_PROPERTY
Coulomb
SciTegic.value.DoubleValue
46.317

@<SCITEGIC>MOL_PROPERTY
VdW
SciTegic.value.DoubleValue
0.296

@<SCITEGIC>MOL_PROPERTY
VdW6
SciTegic.value.DoubleValue
-8.628

@<SCITEGIC>MOL_PROPERTY
VdW12
SciTegic.value.DoubleValue
8.923

@<SCITEGIC>MOL_PROPERTY
Bond
SciTegic.value.DoubleValue
0.245

@<SCITEGIC>MOL_PROPERTY
Angle
SciTegic.value.DoubleValue
1.578

@<SCITEGIC>MOL_PROPERTY
Pdih
SciTegic.value.DoubleValue
3.676

@<SCITEGIC>MOL_PROPERTY
Idih
SciTegic.value.DoubleValue
0.000

@<SCITEGIC>MOL_PROPERTY
Tether
SciTegic.value.DoubleValue
0.000

@<TRIPOS>MOLECULE
guest-s14_vm2.mol2 : vm2 ligand conformer 148
          26          25           1
SMALL
USER_CHARGES
 
@<TRIPOS>ATOM
       1    C1      19.577743   19.628601   19.812022 C.3        1 MOL1        -0.2400
       2    H1      19.909968   19.817978   18.783093 H          1 MOL1         0.0971
       3    H2      18.923459   18.748697   19.788861 H          1 MOL1         0.0971
       4    H3      18.982359   20.492020   20.136094 H          1 MOL1         0.0971
       5    C2      20.794362   19.412174   20.740804 C.3        1 MOL1        -0.1385
       6    H4      21.478105   20.265038   20.627052 H          1 MOL1         0.0960
       7    H5      21.355173   18.524015   20.417654 H          1 MOL1         0.0960
       8    C3      20.415827   19.278921   22.235963 C.3        1 MOL1        -0.1409
       9    H6      21.346452   19.291417   22.816581 H          1 MOL1         0.0960
      10    H7      19.833964   20.157136   22.547455 H          1 MOL1         0.0960
      11    C4      19.633603   17.982461   22.562033 C.3        1 MOL1        -0.1409
      12    H8      20.264477   17.111250   22.338486 H          1 MOL1         0.0960
      13    H9      18.761664   17.904491   21.900577 H          1 MOL1         0.0960
      14    C5      19.122591   17.888419   24.023343 C.3        1 MOL1        -0.1409
      15    H10     18.399922   18.691061   24.219022 H          1 MOL1         0.0960
      16    H11     18.552172   16.953401   24.111331 H          1 MOL1         0.0960
      17    C6      20.232128   17.873506   25.108853 C.3        1 MOL1        -0.1450
      18    H12     21.098360   17.305775   24.744114 H          1 MOL1         0.0960
      19    H13     19.863428   17.327062   25.987129 H          1 MOL1         0.0960
      20    C7      20.692479   19.271471   25.573790 C.3        1 MOL1         0.0172
      21    H14     21.529199   19.161267   26.268957 H          1 MOL1         0.0934
      22    H15     21.036461   19.861824   24.722858 H          1 MOL1         0.0934
      23    N1      19.612266   20.063446   26.284191 N.4        1 MOL1        -0.5956
      24    H16     19.954088   20.978837   26.596301 H          1 MOL1         0.3624
      25    H17     19.266569   19.573871   27.115916 H          1 MOL1         0.3624
      26    H18     18.805364   20.235177   25.676729 H          1 MOL1         0.3624
@<TRIPOS>BOND
    1     1     2    1
    2     1     3    1
    3     1     4    1
    4     1     5    1
    5     5     6    1
    6     5     7    1
    7     5     8    1
    8     8     9    1
    9     8    10    1
   10     8    11    1
   11    11    12    1
   12    11    13    1
   13    11    14    1
   14    14    15    1
   15    14    16    1
   16    14    17    1
   17    17    18    1
   18    17    19    1
   19    17    20    1
   20    20    21    1
   21    20    22    1
   22    20    23    1
   23    23    24    1
   24    23    25    1
   25    23    26    1
@<TRIPOS>SUBSTRUCTURE
       1 MOL1            1 RESIDUE      1      MOL     
@<SCITEGIC>MOL_PROPERTY
VM2 Rank
SciTegic.value.IntegerValue
148

@<SCITEGIC>MOL_PROPERTY
Conf_Id
SciTegic.value.IntegerValue
538

@<SCITEGIC>MOL_PROPERTY
Probability
SciTegic.value.DoubleValue
0.01

@<SCITEGIC>MOL_PROPERTY
Sum Probability
SciTegic.value.DoubleValue
99.83

@<SCITEGIC>MOL_PROPERTY
Delta G
SciTegic.value.DoubleValue
4.040

@<SCITEGIC>MOL_PROPERTY
G
SciTegic.value.DoubleValue
52.301

@<SCITEGIC>MOL_PROPERTY
E
SciTegic.value.DoubleValue
19.495

@<SCITEGIC>MOL_PROPERTY
-TS
SciTegic.value.DoubleValue
32.806

@<SCITEGIC>MOL_PROPERTY
U+W
SciTegic.value.DoubleValue
-1.967

@<SCITEGIC>MOL_PROPERTY
U
SciTegic.value.DoubleValue
52.151

@<SCITEGIC>MOL_PROPERTY
W
SciTegic.value.DoubleValue
-54.117

@<SCITEGIC>MOL_PROPERTY
W(PB)
SciTegic.value.DoubleValue
-56.367

@<SCITEGIC>MOL_PROPERTY
W(SA)
SciTegic.value.DoubleValue
2.249

@<SCITEGIC>MOL_PROPERTY
Valence
SciTegic.value.DoubleValue
5.368

@<SCITEGIC>MOL_PROPERTY
Coulomb
SciTegic.value.DoubleValue
45.965

@<SCITEGIC>MOL_PROPERTY
VdW
SciTegic.value.DoubleValue
0.817

@<SCITEGIC>MOL_PROPERTY
VdW6
SciTegic.value.DoubleValue
-8.546

@<SCITEGIC>MOL_PROPERTY
VdW12
SciTegic.value.DoubleValue
9.364

@<SCITEGIC>MOL_PROPERTY
Bond
SciTegic.value.DoubleValue
0.273

@<SCITEGIC>MOL_PROPERTY
Angle
SciTegic.value.DoubleValue
1.632

@<SCITEGIC>MOL_PROPERTY
Pdih
SciTegic.value.DoubleValue
3.464

@<SCITEGIC>MOL_PROPERTY
Idih
SciTegic.value.DoubleValue
0.000

@<SCITEGIC>MOL_PROPERTY
Tether
SciTegic.value.DoubleValue
0.000

@<TRIPOS>MOLECULE
guest-s14_vm2.mol2 : vm2 ligand conformer 149
          26          25           1
SMALL
USER_CHARGES
 
@<TRIPOS>ATOM
       1    C1      18.430810   19.357476   21.285934 C.3        1 MOL1        -0.2400
       2    H1      18.510487   19.830789   22.270051 H          1 MOL1         0.0971
       3    H2      17.833974   20.022917   20.648889 H          1 MOL1         0.0971
       4    H3      17.872033   18.419938   21.402751 H          1 MOL1         0.0971
       5    C2      19.815815   19.101047   20.647690 C.3        1 MOL1        -0.1385
       6    H4      20.354961   20.049073   20.513469 H          1 MOL1         0.0960
       7    H5      19.650393   18.702831   19.636772 H          1 MOL1         0.0960
       8    C3      20.690940   18.089785   21.433219 C.3        1 MOL1        -0.1409
       9    H6      20.061703   17.333015   21.919626 H          1 MOL1         0.0960
      10    H7      21.295995   17.534467   20.703239 H          1 MOL1         0.0960
      11    C4      21.676142   18.726770   22.450616 C.3        1 MOL1        -0.1409
      12    H8      22.351104   19.405454   21.911224 H          1 MOL1         0.0960
      13    H9      22.317779   17.933636   22.858569 H          1 MOL1         0.0960
      14    C5      21.035501   19.499400   23.630208 C.3        1 MOL1        -0.1409
      15    H10     21.842864   19.925502   24.241838 H          1 MOL1         0.0960
      16    H11     20.466246   20.357374   23.251216 H          1 MOL1         0.0960
      17    C6      20.142334   18.616912   24.533673 C.3        1 MOL1        -0.1450
      18    H12     20.725311   17.765089   24.908213 H          1 MOL1         0.0960
      19    H13     19.306188   18.204536   23.955916 H          1 MOL1         0.0960
      20    C7      19.584704   19.418042   25.723025 C.3        1 MOL1         0.0172
      21    H14     20.410818   19.815068   26.319135 H          1 MOL1         0.0934
      22    H15     18.991172   20.258987   25.354293 H          1 MOL1         0.0934
      23    N1      18.704755   18.589568   26.636636 N.4        1 MOL1        -0.5956
      24    H16     19.212979   17.795223   27.039014 H          1 MOL1         0.3624
      25    H17     17.891487   18.208680   26.142076 H          1 MOL1         0.3624
      26    H18     18.344666   19.142239   27.422303 H          1 MOL1         0.3624
@<TRIPOS>BOND
    1     1     2    1
    2     1     3    1
    3     1     4    1
    4     1     5    1
    5     5     6    1
    6     5     7    1
    7     5     8    1
    8     8     9    1
    9     8    10    1
   10     8    11    1
   11    11    12    1
   12    11    13    1
   13    11    14    1
   14    14    15    1
   15    14    16    1
   16    14    17    1
   17    17    18    1
   18    17    19    1
   19    17    20    1
   20    20    21    1
   21    20    22    1
   22    20    23    1
   23    23    24    1
   24    23    25    1
   25    23    26    1
@<TRIPOS>SUBSTRUCTURE
       1 MOL1            1 RESIDUE      1      MOL     
@<SCITEGIC>MOL_PROPERTY
VM2 Rank
SciTegic.value.IntegerValue
149

@<SCITEGIC>MOL_PROPERTY
Conf_Id
SciTegic.value.IntegerValue
276

@<SCITEGIC>MOL_PROPERTY
Probability
SciTegic.value.DoubleValue
0.01

@<SCITEGIC>MOL_PROPERTY
Sum Probability
SciTegic.value.DoubleValue
99.84

@<SCITEGIC>MOL_PROPERTY
Delta G
SciTegic.value.DoubleValue
4.052

@<SCITEGIC>MOL_PROPERTY
G
SciTegic.value.DoubleValue
52.314

@<SCITEGIC>MOL_PROPERTY
E
SciTegic.value.DoubleValue
19.142

@<SCITEGIC>MOL_PROPERTY
-TS
SciTegic.value.DoubleValue
33.172

@<SCITEGIC>MOL_PROPERTY
U+W
SciTegic.value.DoubleValue
-2.320

@<SCITEGIC>MOL_PROPERTY
U
SciTegic.value.DoubleValue
51.692

@<SCITEGIC>MOL_PROPERTY
W
SciTegic.value.DoubleValue
-54.012

@<SCITEGIC>MOL_PROPERTY
W(PB)
SciTegic.value.DoubleValue
-56.248

@<SCITEGIC>MOL_PROPERTY
W(SA)
SciTegic.value.DoubleValue
2.237

@<SCITEGIC>MOL_PROPERTY
Valence
SciTegic.value.DoubleValue
5.738

@<SCITEGIC>MOL_PROPERTY
Coulomb
SciTegic.value.DoubleValue
45.542

@<SCITEGIC>MOL_PROPERTY
VdW
SciTegic.value.DoubleValue
0.411

@<SCITEGIC>MOL_PROPERTY
VdW6
SciTegic.value.DoubleValue
-8.566

@<SCITEGIC>MOL_PROPERTY
VdW12
SciTegic.value.DoubleValue
8.977

@<SCITEGIC>MOL_PROPERTY
Bond
SciTegic.value.DoubleValue
0.261

@<SCITEGIC>MOL_PROPERTY
Angle
SciTegic.value.DoubleValue
1.836

@<SCITEGIC>MOL_PROPERTY
Pdih
SciTegic.value.DoubleValue
3.642

@<SCITEGIC>MOL_PROPERTY
Idih
SciTegic.value.DoubleValue
0.000

@<SCITEGIC>MOL_PROPERTY
Tether
SciTegic.value.DoubleValue
0.000

@<TRIPOS>MOLECULE
guest-s14_vm2.mol2 : vm2 ligand conformer 150
          26          25           1
SMALL
USER_CHARGES
 
@<TRIPOS>ATOM
       1    C1      21.484633   18.518593   20.381269 C.3        1 MOL1        -0.2400
       2    H1      22.279744   17.761746   20.381884 H          1 MOL1         0.0971
       3    H2      20.935608   18.429416   19.434782 H          1 MOL1         0.0971
       4    H3      21.960603   19.507486   20.408641 H          1 MOL1         0.0971
       5    C2      20.544535   18.322412   21.589377 C.3        1 MOL1        -0.1385
       6    H4      21.135616   18.373445   22.510601 H          1 MOL1         0.0960
       7    H5      20.110317   17.313699   21.549552 H          1 MOL1         0.0960
       8    C3      19.411066   19.376227   21.605570 C.3        1 MOL1        -0.1409
       9    H6      19.832401   20.390724   21.622396 H          1 MOL1         0.0960
      10    H7      18.858599   19.294277   20.659244 H          1 MOL1         0.0960
      11    C4      18.404046   19.196845   22.771996 C.3        1 MOL1        -0.1409
      12    H8      18.306477   18.135280   23.035945 H          1 MOL1         0.0960
      13    H9      17.411700   19.496470   22.407411 H          1 MOL1         0.0960
      14    C5      18.705722   20.051762   24.032516 C.3        1 MOL1        -0.1409
      15    H10     18.704050   21.114467   23.753476 H          1 MOL1         0.0960
      16    H11     17.876853   19.928803   24.743389 H          1 MOL1         0.0960
      17    C6      20.031611   19.727877   24.761118 C.3        1 MOL1        -0.1450
      18    H12     20.124058   20.387459   25.634155 H          1 MOL1         0.0960
      19    H13     20.883484   19.962712   24.111278 H          1 MOL1         0.0960
      20    C7      20.107300   18.263335   25.231750 C.3        1 MOL1         0.0172
      21    H14     19.271103   18.049539   25.902871 H          1 MOL1         0.0934
      22    H15     20.036327   17.593928   24.370709 H          1 MOL1         0.0934
      23    N1      21.392087   17.941949   25.967404 N.4        1 MOL1        -0.5956
      24    H16     22.218563   18.098524   25.381562 H          1 MOL1         0.3624
      25    H17     21.421953   16.962745   26.271662 H          1 MOL1         0.3624
      26    H18     21.504418   18.518317   26.807850 H          1 MOL1         0.3624
@<TRIPOS>BOND
    1     1     2    1
    2     1     3    1
    3     1     4    1
    4     1     5    1
    5     5     6    1
    6     5     7    1
    7     5     8    1
    8     8     9    1
    9     8    10    1
   10     8    11    1
   11    11    12    1
   12    11    13    1
   13    11    14    1
   14    14    15    1
   15    14    16    1
   16    14    17    1
   17    17    18    1
   18    17    19    1
   19    17    20    1
   20    20    21    1
   21    20    22    1
   22    20    23    1
   23    23    24    1
   24    23    25    1
   25    23    26    1
@<TRIPOS>SUBSTRUCTURE
       1 MOL1            1 RESIDUE      1      MOL     
@<SCITEGIC>MOL_PROPERTY
VM2 Rank
SciTegic.value.IntegerValue
150

@<SCITEGIC>MOL_PROPERTY
Conf_Id
SciTegic.value.IntegerValue
1317

@<SCITEGIC>MOL_PROPERTY
Probability
SciTegic.value.DoubleValue
0.01

@<SCITEGIC>MOL_PROPERTY
Sum Probability
SciTegic.value.DoubleValue
99.85

@<SCITEGIC>MOL_PROPERTY
Delta G
SciTegic.value.DoubleValue
4.056

@<SCITEGIC>MOL_PROPERTY
G
SciTegic.value.DoubleValue
52.317

@<SCITEGIC>MOL_PROPERTY
E
SciTegic.value.DoubleValue
19.231

@<SCITEGIC>MOL_PROPERTY
-TS
SciTegic.value.DoubleValue
33.086

@<SCITEGIC>MOL_PROPERTY
U+W
SciTegic.value.DoubleValue
-2.231

@<SCITEGIC>MOL_PROPERTY
U
SciTegic.value.DoubleValue
52.111

@<SCITEGIC>MOL_PROPERTY
W
SciTegic.value.DoubleValue
-54.342

@<SCITEGIC>MOL_PROPERTY
W(PB)
SciTegic.value.DoubleValue
-56.604

@<SCITEGIC>MOL_PROPERTY
W(SA)
SciTegic.value.DoubleValue
2.263

@<SCITEGIC>MOL_PROPERTY
Valence
SciTegic.value.DoubleValue
5.498

@<SCITEGIC>MOL_PROPERTY
Coulomb
SciTegic.value.DoubleValue
46.317

@<SCITEGIC>MOL_PROPERTY
VdW
SciTegic.value.DoubleValue
0.296

@<SCITEGIC>MOL_PROPERTY
VdW6
SciTegic.value.DoubleValue
-8.628

@<SCITEGIC>MOL_PROPERTY
VdW12
SciTegic.value.DoubleValue
8.923

@<SCITEGIC>MOL_PROPERTY
Bond
SciTegic.value.DoubleValue
0.245

@<SCITEGIC>MOL_PROPERTY
Angle
SciTegic.value.DoubleValue
1.578

@<SCITEGIC>MOL_PROPERTY
Pdih
SciTegic.value.DoubleValue
3.675

@<SCITEGIC>MOL_PROPERTY
Idih
SciTegic.value.DoubleValue
0.000

@<SCITEGIC>MOL_PROPERTY
Tether
SciTegic.value.DoubleValue
0.000

@<TRIPOS>MOLECULE
guest-s14_vm2.mol2 : vm2 ligand conformer 151
          26          25           1
SMALL
USER_CHARGES
 
@<TRIPOS>ATOM
       1    C1      19.694947   19.705467   19.815568 C.3        1 MOL1        -0.2400
       2    H1      20.760862   19.961387   19.849996 H          1 MOL1         0.0971
       3    H2      19.438813   19.505982   18.766982 H          1 MOL1         0.0971
       4    H3      19.119631   20.582253   20.139997 H          1 MOL1         0.0971
       5    C2      19.373939   18.474088   20.693234 C.3        1 MOL1        -0.1385
       6    H4      19.985458   17.619310   20.372049 H          1 MOL1         0.0960
       7    H5      18.327710   18.184653   20.521615 H          1 MOL1         0.0960
       8    C3      19.574958   18.723955   22.207735 C.3        1 MOL1        -0.1409
       9    H6      18.981250   19.594428   22.518607 H          1 MOL1         0.0960
      10    H7      19.171998   17.855935   22.743924 H          1 MOL1         0.0960
      11    C4      21.057469   18.923176   22.609581 C.3        1 MOL1        -0.1409
      12    H8      21.501274   19.714232   21.992207 H          1 MOL1         0.0960
      13    H9      21.621535   18.007861   22.383724 H          1 MOL1         0.0960
      14    C5      21.275920   19.310771   24.095332 C.3        1 MOL1        -0.1409
      15    H10     22.354414   19.464830   24.238493 H          1 MOL1         0.0960
      16    H11     20.812028   20.284311   24.299782 H          1 MOL1         0.0960
      17    C6      20.804789   18.251710   25.127828 C.3        1 MOL1        -0.1450
      18    H12     21.410617   18.348480   26.038607 H          1 MOL1         0.0960
      19    H13     21.004173   17.243762   24.740533 H          1 MOL1         0.0960
      20    C7      19.318278   18.363964   25.527920 C.3        1 MOL1         0.0172
      21    H14     18.680535   18.306605   24.644221 H          1 MOL1         0.0934
      22    H15     19.059543   17.530082   26.186100 H          1 MOL1         0.0934
      23    N1      18.980701   19.645868   26.263803 N.4        1 MOL1        -0.5956
      24    H16     17.991186   19.681989   26.531666 H          1 MOL1         0.3624
      25    H17     19.167036   20.473809   25.689881 H          1 MOL1         0.3624
      26    H18     19.527502   19.745098   27.125265 H          1 MOL1         0.3624
@<TRIPOS>BOND
    1     1     2    1
    2     1     3    1
    3     1     4    1
    4     1     5    1
    5     5     6    1
    6     5     7    1
    7     5     8    1
    8     8     9    1
    9     8    10    1
   10     8    11    1
   11    11    12    1
   12    11    13    1
   13    11    14    1
   14    14    15    1
   15    14    16    1
   16    14    17    1
   17    17    18    1
   18    17    19    1
   19    17    20    1
   20    20    21    1
   21    20    22    1
   22    20    23    1
   23    23    24    1
   24    23    25    1
   25    23    26    1
@<TRIPOS>SUBSTRUCTURE
       1 MOL1            1 RESIDUE      1      MOL     
@<SCITEGIC>MOL_PROPERTY
VM2 Rank
SciTegic.value.IntegerValue
151

@<SCITEGIC>MOL_PROPERTY
Conf_Id
SciTegic.value.IntegerValue
506

@<SCITEGIC>MOL_PROPERTY
Probability
SciTegic.value.DoubleValue
0.01

@<SCITEGIC>MOL_PROPERTY
Sum Probability
SciTegic.value.DoubleValue
99.86

@<SCITEGIC>MOL_PROPERTY
Delta G
SciTegic.value.DoubleValue
4.093

@<SCITEGIC>MOL_PROPERTY
G
SciTegic.value.DoubleValue
52.354

@<SCITEGIC>MOL_PROPERTY
E
SciTegic.value.DoubleValue
19.548

@<SCITEGIC>MOL_PROPERTY
-TS
SciTegic.value.DoubleValue
32.806

@<SCITEGIC>MOL_PROPERTY
U+W
SciTegic.value.DoubleValue
-1.914

@<SCITEGIC>MOL_PROPERTY
U
SciTegic.value.DoubleValue
52.150

@<SCITEGIC>MOL_PROPERTY
W
SciTegic.value.DoubleValue
-54.064

@<SCITEGIC>MOL_PROPERTY
W(PB)
SciTegic.value.DoubleValue
-56.339

@<SCITEGIC>MOL_PROPERTY
W(SA)
SciTegic.value.DoubleValue
2.275

@<SCITEGIC>MOL_PROPERTY
Valence
SciTegic.value.DoubleValue
5.369

@<SCITEGIC>MOL_PROPERTY
Coulomb
SciTegic.value.DoubleValue
45.964

@<SCITEGIC>MOL_PROPERTY
VdW
SciTegic.value.DoubleValue
0.817

@<SCITEGIC>MOL_PROPERTY
VdW6
SciTegic.value.DoubleValue
-8.546

@<SCITEGIC>MOL_PROPERTY
VdW12
SciTegic.value.DoubleValue
9.363

@<SCITEGIC>MOL_PROPERTY
Bond
SciTegic.value.DoubleValue
0.273

@<SCITEGIC>MOL_PROPERTY
Angle
SciTegic.value.DoubleValue
1.631

@<SCITEGIC>MOL_PROPERTY
Pdih
SciTegic.value.DoubleValue
3.464

@<SCITEGIC>MOL_PROPERTY
Idih
SciTegic.value.DoubleValue
0.000

@<SCITEGIC>MOL_PROPERTY
Tether
SciTegic.value.DoubleValue
0.000

@<TRIPOS>MOLECULE
guest-s14_vm2.mol2 : vm2 ligand conformer 152
          26          25           1
SMALL
USER_CHARGES
 
@<TRIPOS>ATOM
       1    C1      20.019885   19.947618   20.294721 C.3        1 MOL1        -0.2400
       2    H1      18.944700   19.876450   20.501055 H          1 MOL1         0.0971
       3    H2      20.223188   20.968811   19.947370 H          1 MOL1         0.0971
       4    H3      20.259089   19.259410   19.473701 H          1 MOL1         0.0971
       5    C2      20.859308   19.625875   21.551558 C.3        1 MOL1        -0.1385
       6    H4      20.590777   20.318932   22.358983 H          1 MOL1         0.0960
       7    H5      21.917978   19.818198   21.328385 H          1 MOL1         0.0960
       8    C3      20.713430   18.157488   22.026685 C.3        1 MOL1        -0.1409
       9    H6      21.068063   17.494470   21.225619 H          1 MOL1         0.0960
      10    H7      21.390435   17.975598   22.870472 H          1 MOL1         0.0960
      11    C4      19.273908   17.728225   22.414471 C.3        1 MOL1        -0.1409
      12    H8      19.296156   16.677047   22.733038 H          1 MOL1         0.0960
      13    H9      18.644665   17.744032   21.514675 H          1 MOL1         0.0960
      14    C5      18.578463   18.570742   23.517941 C.3        1 MOL1        -0.1409
      15    H10     18.484296   19.619299   23.205657 H          1 MOL1         0.0960
      16    H11     17.547915   18.200572   23.608617 H          1 MOL1         0.0960
      17    C6      19.236035   18.482539   24.918657 C.3        1 MOL1        -0.1450
      18    H12     19.577578   17.456693   25.110161 H          1 MOL1         0.0960
      19    H13     18.470897   18.700292   25.675697 H          1 MOL1         0.0960
      20    C7      20.397137   19.475631   25.114949 C.3        1 MOL1         0.0172
      21    H14     21.192390   19.274551   24.395211 H          1 MOL1         0.0934
      22    H15     20.038025   20.495355   24.952193 H          1 MOL1         0.0934
      23    N1      21.002835   19.410883   26.502018 N.4        1 MOL1        -0.5956
      24    H16     21.771166   20.081197   26.614387 H          1 MOL1         0.3624
      25    H17     21.384001   18.482011   26.709404 H          1 MOL1         0.3624
      26    H18     20.313012   19.623135   27.230185 H          1 MOL1         0.3624
@<TRIPOS>BOND
    1     1     2    1
    2     1     3    1
    3     1     4    1
    4     1     5    1
    5     5     6    1
    6     5     7    1
    7     5     8    1
    8     8     9    1
    9     8    10    1
   10     8    11    1
   11    11    12    1
   12    11    13    1
   13    11    14    1
   14    14    15    1
   15    14    16    1
   16    14    17    1
   17    17    18    1
   18    17    19    1
   19    17    20    1
   20    20    21    1
   21    20    22    1
   22    20    23    1
   23    23    24    1
   24    23    25    1
   25    23    26    1
@<TRIPOS>SUBSTRUCTURE
       1 MOL1            1 RESIDUE      1      MOL     
@<SCITEGIC>MOL_PROPERTY
VM2 Rank
SciTegic.value.IntegerValue
152

@<SCITEGIC>MOL_PROPERTY
Conf_Id
SciTegic.value.IntegerValue
529

@<SCITEGIC>MOL_PROPERTY
Probability
SciTegic.value.DoubleValue
0.01

@<SCITEGIC>MOL_PROPERTY
Sum Probability
SciTegic.value.DoubleValue
99.86

@<SCITEGIC>MOL_PROPERTY
Delta G
SciTegic.value.DoubleValue
4.114

@<SCITEGIC>MOL_PROPERTY
G
SciTegic.value.DoubleValue
52.376

@<SCITEGIC>MOL_PROPERTY
E
SciTegic.value.DoubleValue
18.965

@<SCITEGIC>MOL_PROPERTY
-TS
SciTegic.value.DoubleValue
33.411

@<SCITEGIC>MOL_PROPERTY
U+W
SciTegic.value.DoubleValue
-2.497

@<SCITEGIC>MOL_PROPERTY
U
SciTegic.value.DoubleValue
51.820

@<SCITEGIC>MOL_PROPERTY
W
SciTegic.value.DoubleValue
-54.318

@<SCITEGIC>MOL_PROPERTY
W(PB)
SciTegic.value.DoubleValue
-56.541

@<SCITEGIC>MOL_PROPERTY
W(SA)
SciTegic.value.DoubleValue
2.224

@<SCITEGIC>MOL_PROPERTY
Valence
SciTegic.value.DoubleValue
5.497

@<SCITEGIC>MOL_PROPERTY
Coulomb
SciTegic.value.DoubleValue
46.010

@<SCITEGIC>MOL_PROPERTY
VdW
SciTegic.value.DoubleValue
0.313

@<SCITEGIC>MOL_PROPERTY
VdW6
SciTegic.value.DoubleValue
-9.491

@<SCITEGIC>MOL_PROPERTY
VdW12
SciTegic.value.DoubleValue
9.804

@<SCITEGIC>MOL_PROPERTY
Bond
SciTegic.value.DoubleValue
0.285

@<SCITEGIC>MOL_PROPERTY
Angle
SciTegic.value.DoubleValue
2.062

@<SCITEGIC>MOL_PROPERTY
Pdih
SciTegic.value.DoubleValue
3.150

@<SCITEGIC>MOL_PROPERTY
Idih
SciTegic.value.DoubleValue
0.000

@<SCITEGIC>MOL_PROPERTY
Tether
SciTegic.value.DoubleValue
0.000

@<TRIPOS>MOLECULE
guest-s14_vm2.mol2 : vm2 ligand conformer 153
          26          25           1
SMALL
USER_CHARGES
 
@<TRIPOS>ATOM
       1    C1      19.206429   19.411039   20.267467 C.3        1 MOL1        -0.2400
       2    H1      18.204800   19.637464   19.879794 H          1 MOL1         0.0971
       3    H2      19.684328   20.364252   20.525652 H          1 MOL1         0.0971
       4    H3      19.782883   18.945192   19.457768 H          1 MOL1         0.0971
       5    C2      19.113844   18.474693   21.493221 C.3        1 MOL1        -0.1385
       6    H4      18.531870   17.584957   21.215280 H          1 MOL1         0.0960
       7    H5      18.545144   18.969827   22.290589 H          1 MOL1         0.0960
       8    C3      20.497729   18.015246   22.019486 C.3        1 MOL1        -0.1409
       9    H6      20.359684   17.295811   22.836035 H          1 MOL1         0.0960
      10    H7      21.004755   17.452732   21.223516 H          1 MOL1         0.0960
      11    C4      21.439197   19.156332   22.486849 C.3        1 MOL1        -0.1409
      12    H8      21.713643   19.768143   21.617253 H          1 MOL1         0.0960
      13    H9      22.381143   18.711727   22.836163 H          1 MOL1         0.0960
      14    C5      20.887048   20.093372   23.595099 C.3        1 MOL1        -0.1409
      15    H10     21.627483   20.891229   23.744953 H          1 MOL1         0.0960
      16    H11     19.975450   20.602799   23.255487 H          1 MOL1         0.0960
      17    C6      20.644668   19.411641   24.965750 C.3        1 MOL1        -0.1450
      18    H12     20.709860   20.177036   25.750531 H          1 MOL1         0.0960
      19    H13     21.443893   18.687658   25.172560 H          1 MOL1         0.0960
      20    C7      19.267462   18.730615   25.077229 C.3        1 MOL1         0.0172
      21    H14     18.479409   19.467455   24.900233 H          1 MOL1         0.0934
      22    H15     19.173359   17.943053   24.327714 H          1 MOL1         0.0934
      23    N1      19.024623   18.106062   26.435900 N.4        1 MOL1        -0.5956
      24    H16     19.066668   18.800926   27.188583 H          1 MOL1         0.3624
      25    H17     19.718505   17.383416   26.653636 H          1 MOL1         0.3624
      26    H18     18.102028   17.661114   26.491771 H          1 MOL1         0.3624
@<TRIPOS>BOND
    1     1     2    1
    2     1     3    1
    3     1     4    1
    4     1     5    1
    5     5     6    1
    6     5     7    1
    7     5     8    1
    8     8     9    1
    9     8    10    1
   10     8    11    1
   11    11    12    1
   12    11    13    1
   13    11    14    1
   14    14    15    1
   15    14    16    1
   16    14    17    1
   17    17    18    1
   18    17    19    1
   19    17    20    1
   20    20    21    1
   21    20    22    1
   22    20    23    1
   23    23    24    1
   24    23    25    1
   25    23    26    1
@<TRIPOS>SUBSTRUCTURE
       1 MOL1            1 RESIDUE      1      MOL     
@<SCITEGIC>MOL_PROPERTY
VM2 Rank
SciTegic.value.IntegerValue
153

@<SCITEGIC>MOL_PROPERTY
Conf_Id
SciTegic.value.IntegerValue
1318

@<SCITEGIC>MOL_PROPERTY
Probability
SciTegic.value.DoubleValue
0.01

@<SCITEGIC>MOL_PROPERTY
Sum Probability
SciTegic.value.DoubleValue
99.87

@<SCITEGIC>MOL_PROPERTY
Delta G
SciTegic.value.DoubleValue
4.138

@<SCITEGIC>MOL_PROPERTY
G
SciTegic.value.DoubleValue
52.400

@<SCITEGIC>MOL_PROPERTY
E
SciTegic.value.DoubleValue
18.989

@<SCITEGIC>MOL_PROPERTY
-TS
SciTegic.value.DoubleValue
33.411

@<SCITEGIC>MOL_PROPERTY
U+W
SciTegic.value.DoubleValue
-2.473

@<SCITEGIC>MOL_PROPERTY
U
SciTegic.value.DoubleValue
51.820

@<SCITEGIC>MOL_PROPERTY
W
SciTegic.value.DoubleValue
-54.294

@<SCITEGIC>MOL_PROPERTY
W(PB)
SciTegic.value.DoubleValue
-56.510

@<SCITEGIC>MOL_PROPERTY
W(SA)
SciTegic.value.DoubleValue
2.216

@<SCITEGIC>MOL_PROPERTY
Valence
SciTegic.value.DoubleValue
5.497

@<SCITEGIC>MOL_PROPERTY
Coulomb
SciTegic.value.DoubleValue
46.010

@<SCITEGIC>MOL_PROPERTY
VdW
SciTegic.value.DoubleValue
0.313

@<SCITEGIC>MOL_PROPERTY
VdW6
SciTegic.value.DoubleValue
-9.490

@<SCITEGIC>MOL_PROPERTY
VdW12
SciTegic.value.DoubleValue
9.804

@<SCITEGIC>MOL_PROPERTY
Bond
SciTegic.value.DoubleValue
0.285

@<SCITEGIC>MOL_PROPERTY
Angle
SciTegic.value.DoubleValue
2.062

@<SCITEGIC>MOL_PROPERTY
Pdih
SciTegic.value.DoubleValue
3.150

@<SCITEGIC>MOL_PROPERTY
Idih
SciTegic.value.DoubleValue
0.000

@<SCITEGIC>MOL_PROPERTY
Tether
SciTegic.value.DoubleValue
0.000

@<TRIPOS>MOLECULE
guest-s14_vm2.mol2 : vm2 ligand conformer 154
          26          25           1
SMALL
USER_CHARGES
 
@<TRIPOS>ATOM
       1    C1      19.651695   17.928676   20.215345 C.3        1 MOL1        -0.2400
       2    H1      20.536746   17.305944   20.031434 H          1 MOL1         0.0971
       3    H2      19.085623   17.486883   21.044893 H          1 MOL1         0.0971
       4    H3      19.016736   17.883146   19.321146 H          1 MOL1         0.0971
       5    C2      20.053826   19.389394   20.519920 C.3        1 MOL1        -0.1385
       6    H4      19.155141   19.986676   20.722887 H          1 MOL1         0.0960
       7    H5      20.505096   19.826781   19.618408 H          1 MOL1         0.0960
       8    C3      21.063839   19.521766   21.688707 C.3        1 MOL1        -0.1409
       9    H6      22.005631   19.037906   21.395301 H          1 MOL1         0.0960
      10    H7      21.304432   20.584446   21.830134 H          1 MOL1         0.0960
      11    C4      20.603347   18.923732   23.043812 C.3        1 MOL1        -0.1409
      12    H8      21.428031   19.052361   23.754802 H          1 MOL1         0.0960
      13    H9      20.445951   17.841969   22.941246 H          1 MOL1         0.0960
      14    C5      19.328045   19.591895   23.616071 C.3        1 MOL1        -0.1409
      15    H10     19.518417   20.660951   23.783383 H          1 MOL1         0.0960
      16    H11     18.522354   19.535604   22.873219 H          1 MOL1         0.0960
      17    C6      18.801506   18.950245   24.925379 C.3        1 MOL1        -0.1450
      18    H12     18.547012   17.895123   24.758633 H          1 MOL1         0.0960
      19    H13     17.859062   19.449070   25.187715 H          1 MOL1         0.0960
      20    C7      19.752476   19.081053   26.133210 C.3        1 MOL1         0.0172
      21    H14     20.236003   20.061535   26.121127 H          1 MOL1         0.0934
      22    H15     19.169403   19.002062   27.054772 H          1 MOL1         0.0934
      23    N1      20.826265   18.012240   26.198557 N.4        1 MOL1        -0.5956
      24    H16     21.436606   18.136166   27.013734 H          1 MOL1         0.3624
      25    H17     21.425047   18.022517   25.368287 H          1 MOL1         0.3624
      26    H18     20.422124   17.072667   26.268761 H          1 MOL1         0.3624
@<TRIPOS>BOND
    1     1     2    1
    2     1     3    1
    3     1     4    1
    4     1     5    1
    5     5     6    1
    6     5     7    1
    7     5     8    1
    8     8     9    1
    9     8    10    1
   10     8    11    1
   11    11    12    1
   12    11    13    1
   13    11    14    1
   14    14    15    1
   15    14    16    1
   16    14    17    1
   17    17    18    1
   18    17    19    1
   19    17    20    1
   20    20    21    1
   21    20    22    1
   22    20    23    1
   23    23    24    1
   24    23    25    1
   25    23    26    1
@<TRIPOS>SUBSTRUCTURE
       1 MOL1            1 RESIDUE      1      MOL     
@<SCITEGIC>MOL_PROPERTY
VM2 Rank
SciTegic.value.IntegerValue
154

@<SCITEGIC>MOL_PROPERTY
Conf_Id
SciTegic.value.IntegerValue
505

@<SCITEGIC>MOL_PROPERTY
Probability
SciTegic.value.DoubleValue
0.01

@<SCITEGIC>MOL_PROPERTY
Sum Probability
SciTegic.value.DoubleValue
99.88

@<SCITEGIC>MOL_PROPERTY
Delta G
SciTegic.value.DoubleValue
4.171

@<SCITEGIC>MOL_PROPERTY
G
SciTegic.value.DoubleValue
52.433

@<SCITEGIC>MOL_PROPERTY
E
SciTegic.value.DoubleValue
19.589

@<SCITEGIC>MOL_PROPERTY
-TS
SciTegic.value.DoubleValue
32.844

@<SCITEGIC>MOL_PROPERTY
U+W
SciTegic.value.DoubleValue
-1.873

@<SCITEGIC>MOL_PROPERTY
U
SciTegic.value.DoubleValue
52.059

@<SCITEGIC>MOL_PROPERTY
W
SciTegic.value.DoubleValue
-53.932

@<SCITEGIC>MOL_PROPERTY
W(PB)
SciTegic.value.DoubleValue
-56.175

@<SCITEGIC>MOL_PROPERTY
W(SA)
SciTegic.value.DoubleValue
2.243

@<SCITEGIC>MOL_PROPERTY
Valence
SciTegic.value.DoubleValue
4.855

@<SCITEGIC>MOL_PROPERTY
Coulomb
SciTegic.value.DoubleValue
46.488

@<SCITEGIC>MOL_PROPERTY
VdW
SciTegic.value.DoubleValue
0.717

@<SCITEGIC>MOL_PROPERTY
VdW6
SciTegic.value.DoubleValue
-8.768

@<SCITEGIC>MOL_PROPERTY
VdW12
SciTegic.value.DoubleValue
9.484

@<SCITEGIC>MOL_PROPERTY
Bond
SciTegic.value.DoubleValue
0.277

@<SCITEGIC>MOL_PROPERTY
Angle
SciTegic.value.DoubleValue
1.731

@<SCITEGIC>MOL_PROPERTY
Pdih
SciTegic.value.DoubleValue
2.847

@<SCITEGIC>MOL_PROPERTY
Idih
SciTegic.value.DoubleValue
0.000

@<SCITEGIC>MOL_PROPERTY
Tether
SciTegic.value.DoubleValue
0.000

@<TRIPOS>MOLECULE
guest-s14_vm2.mol2 : vm2 ligand conformer 155
          26          25           1
SMALL
USER_CHARGES
 
@<TRIPOS>ATOM
       1    C1      20.004878   17.778489   20.108365 C.3        1 MOL1        -0.2400
       2    H1      19.919951   18.393047   19.202775 H          1 MOL1         0.0971
       3    H2      20.444962   16.815521   19.818643 H          1 MOL1         0.0971
       4    H3      18.993457   17.579271   20.482404 H          1 MOL1         0.0971
       5    C2      20.883425   18.475619   21.172526 C.3        1 MOL1        -0.1385
       6    H4      21.905101   18.562421   20.777176 H          1 MOL1         0.0960
       7    H5      20.955257   17.838363   22.061989 H          1 MOL1         0.0960
       8    C3      20.378964   19.893080   21.548185 C.3        1 MOL1        -0.1409
       9    H6      21.160293   20.425113   22.108041 H          1 MOL1         0.0960
      10    H7      20.243206   20.465225   20.620014 H          1 MOL1         0.0960
      11    C4      19.051432   19.925722   22.353863 C.3        1 MOL1        -0.1409
      12    H8      18.414853   19.070297   22.096144 H          1 MOL1         0.0960
      13    H9      18.486974   20.815280   22.041888 H          1 MOL1         0.0960
      14    C5      19.228874   20.004424   23.892240 C.3        1 MOL1        -0.1409
      15    H10     19.773015   20.923246   24.151453 H          1 MOL1         0.0960
      16    H11     18.233951   20.099827   24.349101 H          1 MOL1         0.0960
      17    C6      19.950440   18.787316   24.513678 C.3        1 MOL1        -0.1450
      18    H12     20.990688   18.754191   24.166743 H          1 MOL1         0.0960
      19    H13     19.462882   17.859731   24.185492 H          1 MOL1         0.0960
      20    C7      19.940855   18.854738   26.050950 C.3        1 MOL1         0.0172
      21    H14     20.438352   19.770240   26.382331 H          1 MOL1         0.0934
      22    H15     18.909077   18.873749   26.412223 H          1 MOL1         0.0934
      23    N1      20.642132   17.679612   26.701194 N.4        1 MOL1        -0.5956
      24    H16     20.204281   16.787024   26.450699 H          1 MOL1         0.3624
      25    H17     20.623456   17.744205   27.724866 H          1 MOL1         0.3624
      26    H18     21.627464   17.621254   26.423982 H          1 MOL1         0.3624
@<TRIPOS>BOND
    1     1     2    1
    2     1     3    1
    3     1     4    1
    4     1     5    1
    5     5     6    1
    6     5     7    1
    7     5     8    1
    8     8     9    1
    9     8    10    1
   10     8    11    1
   11    11    12    1
   12    11    13    1
   13    11    14    1
   14    14    15    1
   15    14    16    1
   16    14    17    1
   17    17    18    1
   18    17    19    1
   19    17    20    1
   20    20    21    1
   21    20    22    1
   22    20    23    1
   23    23    24    1
   24    23    25    1
   25    23    26    1
@<TRIPOS>SUBSTRUCTURE
       1 MOL1            1 RESIDUE      1      MOL     
@<SCITEGIC>MOL_PROPERTY
VM2 Rank
SciTegic.value.IntegerValue
155

@<SCITEGIC>MOL_PROPERTY
Conf_Id
SciTegic.value.IntegerValue
1324

@<SCITEGIC>MOL_PROPERTY
Probability
SciTegic.value.DoubleValue
0.01

@<SCITEGIC>MOL_PROPERTY
Sum Probability
SciTegic.value.DoubleValue
99.88

@<SCITEGIC>MOL_PROPERTY
Delta G
SciTegic.value.DoubleValue
4.196

@<SCITEGIC>MOL_PROPERTY
G
SciTegic.value.DoubleValue
52.457

@<SCITEGIC>MOL_PROPERTY
E
SciTegic.value.DoubleValue
19.695

@<SCITEGIC>MOL_PROPERTY
-TS
SciTegic.value.DoubleValue
32.763

@<SCITEGIC>MOL_PROPERTY
U+W
SciTegic.value.DoubleValue
-1.767

@<SCITEGIC>MOL_PROPERTY
U
SciTegic.value.DoubleValue
51.960

@<SCITEGIC>MOL_PROPERTY
W
SciTegic.value.DoubleValue
-53.727

@<SCITEGIC>MOL_PROPERTY
W(PB)
SciTegic.value.DoubleValue
-56.012

@<SCITEGIC>MOL_PROPERTY
W(SA)
SciTegic.value.DoubleValue
2.285

@<SCITEGIC>MOL_PROPERTY
Valence
SciTegic.value.DoubleValue
5.882

@<SCITEGIC>MOL_PROPERTY
Coulomb
SciTegic.value.DoubleValue
45.296

@<SCITEGIC>MOL_PROPERTY
VdW
SciTegic.value.DoubleValue
0.781

@<SCITEGIC>MOL_PROPERTY
VdW6
SciTegic.value.DoubleValue
-7.931

@<SCITEGIC>MOL_PROPERTY
VdW12
SciTegic.value.DoubleValue
8.711

@<SCITEGIC>MOL_PROPERTY
Bond
SciTegic.value.DoubleValue
0.264

@<SCITEGIC>MOL_PROPERTY
Angle
SciTegic.value.DoubleValue
1.487

@<SCITEGIC>MOL_PROPERTY
Pdih
SciTegic.value.DoubleValue
4.131

@<SCITEGIC>MOL_PROPERTY
Idih
SciTegic.value.DoubleValue
0.000

@<SCITEGIC>MOL_PROPERTY
Tether
SciTegic.value.DoubleValue
0.000

@<TRIPOS>MOLECULE
guest-s14_vm2.mol2 : vm2 ligand conformer 156
          26          25           1
SMALL
USER_CHARGES
 
@<TRIPOS>ATOM
       1    C1      19.643386   20.058941   20.279847 C.3        1 MOL1        -0.2400
       2    H1      18.689118   19.524581   20.365055 H          1 MOL1         0.0971
       3    H2      19.574511   20.982670   20.868896 H          1 MOL1         0.0971
       4    H3      19.770532   20.341076   19.226691 H          1 MOL1         0.0971
       5    C2      20.827517   19.185323   20.752419 C.3        1 MOL1        -0.1385
       6    H4      21.766140   19.715178   20.537859 H          1 MOL1         0.0960
       7    H5      20.858614   18.256034   20.166591 H          1 MOL1         0.0960
       8    C3      20.778948   18.852340   22.263043 C.3        1 MOL1        -0.1409
       9    H6      21.706372   18.328060   22.530845 H          1 MOL1         0.0960
      10    H7      20.776977   19.789545   22.830139 H          1 MOL1         0.0960
      11    C4      19.566297   17.969095   22.655464 C.3        1 MOL1        -0.1409
      12    H8      19.558336   17.091263   21.994692 H          1 MOL1         0.0960
      13    H9      18.623456   18.499197   22.467686 H          1 MOL1         0.0960
      14    C5      19.597317   17.465083   24.122380 C.3        1 MOL1        -0.1409
      15    H10     19.045048   16.515928   24.161436 H          1 MOL1         0.0960
      16    H11     20.624151   17.215632   24.420885 H          1 MOL1         0.0960
      17    C6      18.941464   18.419275   25.156106 C.3        1 MOL1        -0.1450
      18    H12     18.907035   17.916064   26.131502 H          1 MOL1         0.0960
      19    H13     17.895801   18.596364   24.871590 H          1 MOL1         0.0960
      20    C7      19.641347   19.780497   25.331062 C.3        1 MOL1         0.0172
      21    H14     19.614209   20.334978   24.390573 H          1 MOL1         0.0934
      22    H15     19.105369   20.367757   26.081609 H          1 MOL1         0.0934
      23    N1      21.084724   19.668445   25.780680 N.4        1 MOL1        -0.5956
      24    H16     21.522287   20.589448   25.892151 H          1 MOL1         0.3624
      25    H17     21.648976   19.143015   25.106156 H          1 MOL1         0.3624
      26    H18     21.164297   19.187801   26.682684 H          1 MOL1         0.3624
@<TRIPOS>BOND
    1     1     2    1
    2     1     3    1
    3     1     4    1
    4     1     5    1
    5     5     6    1
    6     5     7    1
    7     5     8    1
    8     8     9    1
    9     8    10    1
   10     8    11    1
   11    11    12    1
   12    11    13    1
   13    11    14    1
   14    14    15    1
   15    14    16    1
   16    14    17    1
   17    17    18    1
   18    17    19    1
   19    17    20    1
   20    20    21    1
   21    20    22    1
   22    20    23    1
   23    23    24    1
   24    23    25    1
   25    23    26    1
@<TRIPOS>SUBSTRUCTURE
       1 MOL1            1 RESIDUE      1      MOL     
@<SCITEGIC>MOL_PROPERTY
VM2 Rank
SciTegic.value.IntegerValue
156

@<SCITEGIC>MOL_PROPERTY
Conf_Id
SciTegic.value.IntegerValue
275

@<SCITEGIC>MOL_PROPERTY
Probability
SciTegic.value.DoubleValue
0.01

@<SCITEGIC>MOL_PROPERTY
Sum Probability
SciTegic.value.DoubleValue
99.89

@<SCITEGIC>MOL_PROPERTY
Delta G
SciTegic.value.DoubleValue
4.287

@<SCITEGIC>MOL_PROPERTY
G
SciTegic.value.DoubleValue
52.549

@<SCITEGIC>MOL_PROPERTY
E
SciTegic.value.DoubleValue
19.599

@<SCITEGIC>MOL_PROPERTY
-TS
SciTegic.value.DoubleValue
32.950

@<SCITEGIC>MOL_PROPERTY
U+W
SciTegic.value.DoubleValue
-1.863

@<SCITEGIC>MOL_PROPERTY
U
SciTegic.value.DoubleValue
52.361

@<SCITEGIC>MOL_PROPERTY
W
SciTegic.value.DoubleValue
-54.224

@<SCITEGIC>MOL_PROPERTY
W(PB)
SciTegic.value.DoubleValue
-56.457

@<SCITEGIC>MOL_PROPERTY
W(SA)
SciTegic.value.DoubleValue
2.233

@<SCITEGIC>MOL_PROPERTY
Valence
SciTegic.value.DoubleValue
5.334

@<SCITEGIC>MOL_PROPERTY
Coulomb
SciTegic.value.DoubleValue
46.481

@<SCITEGIC>MOL_PROPERTY
VdW
SciTegic.value.DoubleValue
0.546

@<SCITEGIC>MOL_PROPERTY
VdW6
SciTegic.value.DoubleValue
-8.933

@<SCITEGIC>MOL_PROPERTY
VdW12
SciTegic.value.DoubleValue
9.479

@<SCITEGIC>MOL_PROPERTY
Bond
SciTegic.value.DoubleValue
0.278

@<SCITEGIC>MOL_PROPERTY
Angle
SciTegic.value.DoubleValue
1.663

@<SCITEGIC>MOL_PROPERTY
Pdih
SciTegic.value.DoubleValue
3.393

@<SCITEGIC>MOL_PROPERTY
Idih
SciTegic.value.DoubleValue
0.000

@<SCITEGIC>MOL_PROPERTY
Tether
SciTegic.value.DoubleValue
0.000

@<TRIPOS>MOLECULE
guest-s14_vm2.mol2 : vm2 ligand conformer 157
          26          25           1
SMALL
USER_CHARGES
 
@<TRIPOS>ATOM
       1    C1      20.813750   19.891921   20.074630 C.3        1 MOL1        -0.2400
       2    H1      21.737835   20.472524   19.956348 H          1 MOL1         0.0971
       3    H2      20.782151   19.142406   19.273103 H          1 MOL1         0.0971
       4    H3      19.966076   20.575803   19.936905 H          1 MOL1         0.0971
       5    C2      20.765140   19.221877   21.464107 C.3        1 MOL1        -0.1385
       6    H4      20.844479   19.997524   22.233951 H          1 MOL1         0.0960
       7    H5      21.641734   18.569691   21.581815 H          1 MOL1         0.0960
       8    C3      19.471248   18.393548   21.651200 C.3        1 MOL1        -0.1409
       9    H6      18.586838   19.032833   21.524304 H          1 MOL1         0.0960
      10    H7      19.425228   17.650500   20.842978 H          1 MOL1         0.0960
      11    C4      19.395610   17.639952   23.005190 C.3        1 MOL1        -0.1409
      12    H8      20.399123   17.338884   23.334020 H          1 MOL1         0.0960
      13    H9      18.853046   16.699875   22.834008 H          1 MOL1         0.0960
      14    C5      18.648481   18.399024   24.134990 C.3        1 MOL1        -0.1409
      15    H10     17.626973   18.624249   23.798972 H          1 MOL1         0.0960
      16    H11     18.531599   17.722757   24.992401 H          1 MOL1         0.0960
      17    C6      19.314607   19.711874   24.618498 C.3        1 MOL1        -0.1450
      18    H12     18.717904   20.136499   25.436617 H          1 MOL1         0.0960
      19    H13     19.286221   20.457330   23.814421 H          1 MOL1         0.0960
      20    C7      20.768680   19.533739   25.100272 C.3        1 MOL1         0.0172
      21    H14     21.380222   19.131380   24.288735 H          1 MOL1         0.0934
      22    H15     21.178805   20.506093   25.386256 H          1 MOL1         0.0934
      23    N1      20.903484   18.607066   26.292113 N.4        1 MOL1        -0.5956
      24    H16     20.373174   18.947902   27.100455 H          1 MOL1         0.3624
      25    H17     21.879511   18.510975   26.592435 H          1 MOL1         0.3624
      26    H18     20.559117   17.665922   26.078704 H          1 MOL1         0.3624
@<TRIPOS>BOND
    1     1     2    1
    2     1     3    1
    3     1     4    1
    4     1     5    1
    5     5     6    1
    6     5     7    1
    7     5     8    1
    8     8     9    1
    9     8    10    1
   10     8    11    1
   11    11    12    1
   12    11    13    1
   13    11    14    1
   14    14    15    1
   15    14    16    1
   16    14    17    1
   17    17    18    1
   18    17    19    1
   19    17    20    1
   20    20    21    1
   21    20    22    1
   22    20    23    1
   23    23    24    1
   24    23    25    1
   25    23    26    1
@<TRIPOS>SUBSTRUCTURE
       1 MOL1            1 RESIDUE      1      MOL     
@<SCITEGIC>MOL_PROPERTY
VM2 Rank
SciTegic.value.IntegerValue
157

@<SCITEGIC>MOL_PROPERTY
Conf_Id
SciTegic.value.IntegerValue
550

@<SCITEGIC>MOL_PROPERTY
Probability
SciTegic.value.DoubleValue
0.01

@<SCITEGIC>MOL_PROPERTY
Sum Probability
SciTegic.value.DoubleValue
99.89

@<SCITEGIC>MOL_PROPERTY
Delta G
SciTegic.value.DoubleValue
4.317

@<SCITEGIC>MOL_PROPERTY
G
SciTegic.value.DoubleValue
52.578

@<SCITEGIC>MOL_PROPERTY
E
SciTegic.value.DoubleValue
19.348

@<SCITEGIC>MOL_PROPERTY
-TS
SciTegic.value.DoubleValue
33.230

@<SCITEGIC>MOL_PROPERTY
U+W
SciTegic.value.DoubleValue
-2.113

@<SCITEGIC>MOL_PROPERTY
U
SciTegic.value.DoubleValue
52.068

@<SCITEGIC>MOL_PROPERTY
W
SciTegic.value.DoubleValue
-54.182

@<SCITEGIC>MOL_PROPERTY
W(PB)
SciTegic.value.DoubleValue
-56.422

@<SCITEGIC>MOL_PROPERTY
W(SA)
SciTegic.value.DoubleValue
2.240

@<SCITEGIC>MOL_PROPERTY
Valence
SciTegic.value.DoubleValue
5.586

@<SCITEGIC>MOL_PROPERTY
Coulomb
SciTegic.value.DoubleValue
46.106

@<SCITEGIC>MOL_PROPERTY
VdW
SciTegic.value.DoubleValue
0.377

@<SCITEGIC>MOL_PROPERTY
VdW6
SciTegic.value.DoubleValue
-9.203

@<SCITEGIC>MOL_PROPERTY
VdW12
SciTegic.value.DoubleValue
9.580

@<SCITEGIC>MOL_PROPERTY
Bond
SciTegic.value.DoubleValue
0.269

@<SCITEGIC>MOL_PROPERTY
Angle
SciTegic.value.DoubleValue
1.679

@<SCITEGIC>MOL_PROPERTY
Pdih
SciTegic.value.DoubleValue
3.638

@<SCITEGIC>MOL_PROPERTY
Idih
SciTegic.value.DoubleValue
0.000

@<SCITEGIC>MOL_PROPERTY
Tether
SciTegic.value.DoubleValue
0.000

@<TRIPOS>MOLECULE
guest-s14_vm2.mol2 : vm2 ligand conformer 158
          26          25           1
SMALL
USER_CHARGES
 
@<TRIPOS>ATOM
       1    C1      20.888847   20.010806   20.487218 C.3        1 MOL1        -0.2400
       2    H1      21.889798   20.211134   20.083661 H          1 MOL1         0.0971
       3    H2      20.157926   20.290315   19.717370 H          1 MOL1         0.0971
       4    H3      20.740528   20.671405   21.348273 H          1 MOL1         0.0971
       5    C2      20.747607   18.517933   20.865596 C.3        1 MOL1        -0.1385
       6    H4      21.525890   18.230936   21.586192 H          1 MOL1         0.0960
       7    H5      20.937996   17.921406   19.962370 H          1 MOL1         0.0960
       8    C3      19.344097   18.149753   21.412204 C.3        1 MOL1        -0.1409
       9    H6      18.579324   18.800725   20.966680 H          1 MOL1         0.0960
      10    H7      19.101501   17.133555   21.071785 H          1 MOL1         0.0960
      11    C4      19.222966   18.163525   22.957859 C.3        1 MOL1        -0.1409
      12    H8      19.926580   17.433102   23.379108 H          1 MOL1         0.0960
      13    H9      18.217697   17.810644   23.226414 H          1 MOL1         0.0960
      14    C5      19.456542   19.551446   23.602678 C.3        1 MOL1        -0.1409
      15    H10     20.502049   19.854679   23.467309 H          1 MOL1         0.0960
      16    H11     18.843571   20.299981   23.082140 H          1 MOL1         0.0960
      17    C6      19.104114   19.585671   25.110882 C.3        1 MOL1        -0.1450
      18    H12     18.034151   19.373597   25.237555 H          1 MOL1         0.0960
      19    H13     19.262561   20.600807   25.498398 H          1 MOL1         0.0960
      20    C7      19.910686   18.586538   25.964997 C.3        1 MOL1         0.0172
      21    H14     19.580677   18.649304   27.005497 H          1 MOL1         0.0934
      22    H15     19.729129   17.568014   25.612291 H          1 MOL1         0.0934
      23    N1      21.406142   18.833327   25.939566 N.4        1 MOL1        -0.5956
      24    H16     21.913719   18.157715   26.521040 H          1 MOL1         0.3624
      25    H17     21.643155   19.767386   26.289244 H          1 MOL1         0.3624
      26    H18     21.784540   18.759147   24.990276 H          1 MOL1         0.3624
@<TRIPOS>BOND
    1     1     2    1
    2     1     3    1
    3     1     4    1
    4     1     5    1
    5     5     6    1
    6     5     7    1
    7     5     8    1
    8     8     9    1
    9     8    10    1
   10     8    11    1
   11    11    12    1
   12    11    13    1
   13    11    14    1
   14    14    15    1
   15    14    16    1
   16    14    17    1
   17    17    18    1
   18    17    19    1
   19    17    20    1
   20    20    21    1
   21    20    22    1
   22    20    23    1
   23    23    24    1
   24    23    25    1
   25    23    26    1
@<TRIPOS>SUBSTRUCTURE
       1 MOL1            1 RESIDUE      1      MOL     
@<SCITEGIC>MOL_PROPERTY
VM2 Rank
SciTegic.value.IntegerValue
158

@<SCITEGIC>MOL_PROPERTY
Conf_Id
SciTegic.value.IntegerValue
1343

@<SCITEGIC>MOL_PROPERTY
Probability
SciTegic.value.DoubleValue
0.01

@<SCITEGIC>MOL_PROPERTY
Sum Probability
SciTegic.value.DoubleValue
99.90

@<SCITEGIC>MOL_PROPERTY
Delta G
SciTegic.value.DoubleValue
4.340

@<SCITEGIC>MOL_PROPERTY
G
SciTegic.value.DoubleValue
52.602

@<SCITEGIC>MOL_PROPERTY
E
SciTegic.value.DoubleValue
19.625

@<SCITEGIC>MOL_PROPERTY
-TS
SciTegic.value.DoubleValue
32.977

@<SCITEGIC>MOL_PROPERTY
U+W
SciTegic.value.DoubleValue
-1.837

@<SCITEGIC>MOL_PROPERTY
U
SciTegic.value.DoubleValue
52.217

@<SCITEGIC>MOL_PROPERTY
W
SciTegic.value.DoubleValue
-54.054

@<SCITEGIC>MOL_PROPERTY
W(PB)
SciTegic.value.DoubleValue
-56.277

@<SCITEGIC>MOL_PROPERTY
W(SA)
SciTegic.value.DoubleValue
2.223

@<SCITEGIC>MOL_PROPERTY
Valence
SciTegic.value.DoubleValue
5.510

@<SCITEGIC>MOL_PROPERTY
Coulomb
SciTegic.value.DoubleValue
45.996

@<SCITEGIC>MOL_PROPERTY
VdW
SciTegic.value.DoubleValue
0.712

@<SCITEGIC>MOL_PROPERTY
VdW6
SciTegic.value.DoubleValue
-8.694

@<SCITEGIC>MOL_PROPERTY
VdW12
SciTegic.value.DoubleValue
9.406

@<SCITEGIC>MOL_PROPERTY
Bond
SciTegic.value.DoubleValue
0.259

@<SCITEGIC>MOL_PROPERTY
Angle
SciTegic.value.DoubleValue
1.385

@<SCITEGIC>MOL_PROPERTY
Pdih
SciTegic.value.DoubleValue
3.865

@<SCITEGIC>MOL_PROPERTY
Idih
SciTegic.value.DoubleValue
0.000

@<SCITEGIC>MOL_PROPERTY
Tether
SciTegic.value.DoubleValue
0.000

@<TRIPOS>MOLECULE
guest-s14_vm2.mol2 : vm2 ligand conformer 159
          26          25           1
SMALL
USER_CHARGES
 
@<TRIPOS>ATOM
       1    C1      18.797987   18.632896   20.417309 C.3        1 MOL1        -0.2400
       2    H1      18.209641   19.003388   21.263707 H          1 MOL1         0.0971
       3    H2      18.864625   19.438127   19.674208 H          1 MOL1         0.0971
       4    H3      18.239175   17.805314   19.961533 H          1 MOL1         0.0971
       5    C2      20.206736   18.161489   20.847418 C.3        1 MOL1        -0.1385
       6    H4      20.721656   17.778955   19.954985 H          1 MOL1         0.0960
       7    H5      20.130643   17.311331   21.539366 H          1 MOL1         0.0960
       8    C3      21.071354   19.288026   21.469934 C.3        1 MOL1        -0.1409
       9    H6      22.115734   19.119959   21.172576 H          1 MOL1         0.0960
      10    H7      20.795198   20.261006   21.040768 H          1 MOL1         0.0960
      11    C4      21.034304   19.357187   23.018402 C.3        1 MOL1        -0.1409
      12    H8      21.741227   20.132621   23.344247 H          1 MOL1         0.0960
      13    H9      21.408583   18.409726   23.428619 H          1 MOL1         0.0960
      14    C5      19.637977   19.670997   23.608714 C.3        1 MOL1        -0.1409
      15    H10     19.215971   20.545349   23.094498 H          1 MOL1         0.0960
      16    H11     18.954648   18.834851   23.415622 H          1 MOL1         0.0960
      17    C6      19.674926   19.961950   25.129911 C.3        1 MOL1        -0.1450
      18    H12     18.662410   20.205279   25.478308 H          1 MOL1         0.0960
      19    H13     20.284453   20.856897   25.312633 H          1 MOL1         0.0960
      20    C7      20.235573   18.800757   25.975867 C.3        1 MOL1         0.0172
      21    H14     21.258648   18.576224   25.663364 H          1 MOL1         0.0934
      22    H15     20.259322   19.096733   27.028159 H          1 MOL1         0.0934
      23    N1      19.422143   17.525699   25.873444 N.4        1 MOL1        -0.5956
      24    H16     19.385600   17.177994   24.910321 H          1 MOL1         0.3624
      25    H17     18.454971   17.666055   26.182949 H          1 MOL1         0.3624
      26    H18     19.815951   16.775114   26.451144 H          1 MOL1         0.3624
@<TRIPOS>BOND
    1     1     2    1
    2     1     3    1
    3     1     4    1
    4     1     5    1
    5     5     6    1
    6     5     7    1
    7     5     8    1
    8     8     9    1
    9     8    10    1
   10     8    11    1
   11    11    12    1
   12    11    13    1
   13    11    14    1
   14    14    15    1
   15    14    16    1
   16    14    17    1
   17    17    18    1
   18    17    19    1
   19    17    20    1
   20    20    21    1
   21    20    22    1
   22    20    23    1
   23    23    24    1
   24    23    25    1
   25    23    26    1
@<TRIPOS>SUBSTRUCTURE
       1 MOL1            1 RESIDUE      1      MOL     
@<SCITEGIC>MOL_PROPERTY
VM2 Rank
SciTegic.value.IntegerValue
159

@<SCITEGIC>MOL_PROPERTY
Conf_Id
SciTegic.value.IntegerValue
190

@<SCITEGIC>MOL_PROPERTY
Probability
SciTegic.value.DoubleValue
0.00

@<SCITEGIC>MOL_PROPERTY
Sum Probability
SciTegic.value.DoubleValue
99.90

@<SCITEGIC>MOL_PROPERTY
Delta G
SciTegic.value.DoubleValue
4.362

@<SCITEGIC>MOL_PROPERTY
G
SciTegic.value.DoubleValue
52.624

@<SCITEGIC>MOL_PROPERTY
E
SciTegic.value.DoubleValue
19.647

@<SCITEGIC>MOL_PROPERTY
-TS
SciTegic.value.DoubleValue
32.977

@<SCITEGIC>MOL_PROPERTY
U+W
SciTegic.value.DoubleValue
-1.815

@<SCITEGIC>MOL_PROPERTY
U
SciTegic.value.DoubleValue
52.217

@<SCITEGIC>MOL_PROPERTY
W
SciTegic.value.DoubleValue
-54.032

@<SCITEGIC>MOL_PROPERTY
W(PB)
SciTegic.value.DoubleValue
-56.255

@<SCITEGIC>MOL_PROPERTY
W(SA)
SciTegic.value.DoubleValue
2.223

@<SCITEGIC>MOL_PROPERTY
Valence
SciTegic.value.DoubleValue
5.510

@<SCITEGIC>MOL_PROPERTY
Coulomb
SciTegic.value.DoubleValue
45.996

@<SCITEGIC>MOL_PROPERTY
VdW
SciTegic.value.DoubleValue
0.712

@<SCITEGIC>MOL_PROPERTY
VdW6
SciTegic.value.DoubleValue
-8.695

@<SCITEGIC>MOL_PROPERTY
VdW12
SciTegic.value.DoubleValue
9.406

@<SCITEGIC>MOL_PROPERTY
Bond
SciTegic.value.DoubleValue
0.259

@<SCITEGIC>MOL_PROPERTY
Angle
SciTegic.value.DoubleValue
1.386

@<SCITEGIC>MOL_PROPERTY
Pdih
SciTegic.value.DoubleValue
3.865

@<SCITEGIC>MOL_PROPERTY
Idih
SciTegic.value.DoubleValue
0.000

@<SCITEGIC>MOL_PROPERTY
Tether
SciTegic.value.DoubleValue
0.000

@<TRIPOS>MOLECULE
guest-s14_vm2.mol2 : vm2 ligand conformer 160
          26          25           1
SMALL
USER_CHARGES
 
@<TRIPOS>ATOM
       1    C1      19.835179   20.216319   20.294368 C.3        1 MOL1        -0.2400
       2    H1      18.773146   20.341811   20.046597 H          1 MOL1         0.0971
       3    H2      20.042302   20.804074   21.195408 H          1 MOL1         0.0971
       4    H3      20.421609   20.648280   19.473145 H          1 MOL1         0.0971
       5    C2      20.184793   18.721327   20.480656 C.3        1 MOL1        -0.1385
       6    H4      21.263324   18.599242   20.652227 H          1 MOL1         0.0960
       7    H5      19.969050   18.203177   19.535731 H          1 MOL1         0.0960
       8    C3      19.377349   18.038156   21.614389 C.3        1 MOL1        -0.1409
       9    H6      18.401640   18.528649   21.734823 H          1 MOL1         0.0960
      10    H7      19.153405   17.008915   21.301458 H          1 MOL1         0.0960
      11    C4      20.107153   17.960861   22.980408 C.3        1 MOL1        -0.1409
      12    H8      21.029163   17.374061   22.867823 H          1 MOL1         0.0960
      13    H9      19.467604   17.395178   23.670284 H          1 MOL1         0.0960
      14    C5      20.448186   19.338643   23.599736 C.3        1 MOL1        -0.1409
      15    H10     21.160471   19.860231   22.947841 H          1 MOL1         0.0960
      16    H11     19.546435   19.963836   23.639356 H          1 MOL1         0.0960
      17    C6      21.083179   19.235243   25.009573 C.3        1 MOL1        -0.1450
      18    H12     21.360641   20.239879   25.355285 H          1 MOL1         0.0960
      19    H13     22.019531   18.665341   24.943933 H          1 MOL1         0.0960
      20    C7      20.174328   18.574747   26.066353 C.3        1 MOL1         0.0172
      21    H14     19.935447   17.552225   25.763446 H          1 MOL1         0.0934
      22    H15     20.703556   18.529495   27.022052 H          1 MOL1         0.0934
      23    N1      18.870833   19.313704   26.295518 N.4        1 MOL1        -0.5956
      24    H16     18.309929   19.362851   25.439366 H          1 MOL1         0.3624
      25    H17     19.029621   20.276213   26.610531 H          1 MOL1         0.3624
      26    H18     18.293360   18.855794   27.008963 H          1 MOL1         0.3624
@<TRIPOS>BOND
    1     1     2    1
    2     1     3    1
    3     1     4    1
    4     1     5    1
    5     5     6    1
    6     5     7    1
    7     5     8    1
    8     8     9    1
    9     8    10    1
   10     8    11    1
   11    11    12    1
   12    11    13    1
   13    11    14    1
   14    14    15    1
   15    14    16    1
   16    14    17    1
   17    17    18    1
   18    17    19    1
   19    17    20    1
   20    20    21    1
   21    20    22    1
   22    20    23    1
   23    23    24    1
   24    23    25    1
   25    23    26    1
@<TRIPOS>SUBSTRUCTURE
       1 MOL1            1 RESIDUE      1      MOL     
@<SCITEGIC>MOL_PROPERTY
VM2 Rank
SciTegic.value.IntegerValue
160

@<SCITEGIC>MOL_PROPERTY
Conf_Id
SciTegic.value.IntegerValue
287

@<SCITEGIC>MOL_PROPERTY
Probability
SciTegic.value.DoubleValue
0.00

@<SCITEGIC>MOL_PROPERTY
Sum Probability
SciTegic.value.DoubleValue
99.91

@<SCITEGIC>MOL_PROPERTY
Delta G
SciTegic.value.DoubleValue
4.364

@<SCITEGIC>MOL_PROPERTY
G
SciTegic.value.DoubleValue
52.626

@<SCITEGIC>MOL_PROPERTY
E
SciTegic.value.DoubleValue
19.661

@<SCITEGIC>MOL_PROPERTY
-TS
SciTegic.value.DoubleValue
32.965

@<SCITEGIC>MOL_PROPERTY
U+W
SciTegic.value.DoubleValue
-1.801

@<SCITEGIC>MOL_PROPERTY
U
SciTegic.value.DoubleValue
52.090

@<SCITEGIC>MOL_PROPERTY
W
SciTegic.value.DoubleValue
-53.891

@<SCITEGIC>MOL_PROPERTY
W(PB)
SciTegic.value.DoubleValue
-56.115

@<SCITEGIC>MOL_PROPERTY
W(SA)
SciTegic.value.DoubleValue
2.224

@<SCITEGIC>MOL_PROPERTY
Valence
SciTegic.value.DoubleValue
5.621

@<SCITEGIC>MOL_PROPERTY
Coulomb
SciTegic.value.DoubleValue
45.628

@<SCITEGIC>MOL_PROPERTY
VdW
SciTegic.value.DoubleValue
0.841

@<SCITEGIC>MOL_PROPERTY
VdW6
SciTegic.value.DoubleValue
-8.590

@<SCITEGIC>MOL_PROPERTY
VdW12
SciTegic.value.DoubleValue
9.432

@<SCITEGIC>MOL_PROPERTY
Bond
SciTegic.value.DoubleValue
0.266

@<SCITEGIC>MOL_PROPERTY
Angle
SciTegic.value.DoubleValue
1.473

@<SCITEGIC>MOL_PROPERTY
Pdih
SciTegic.value.DoubleValue
3.881

@<SCITEGIC>MOL_PROPERTY
Idih
SciTegic.value.DoubleValue
0.000

@<SCITEGIC>MOL_PROPERTY
Tether
SciTegic.value.DoubleValue
0.000

@<TRIPOS>MOLECULE
guest-s14_vm2.mol2 : vm2 ligand conformer 161
          26          25           1
SMALL
USER_CHARGES
 
@<TRIPOS>ATOM
       1    C1      19.252065   19.801554   20.267392 C.3        1 MOL1        -0.2400
       2    H1      20.113222   20.465221   20.413614 H          1 MOL1         0.0971
       3    H2      18.991995   19.828695   19.201310 H          1 MOL1         0.0971
       4    H3      18.403003   20.210112   20.830572 H          1 MOL1         0.0971
       5    C2      19.568365   18.354988   20.710232 C.3        1 MOL1        -0.1385
       6    H4      20.437159   17.978805   20.152178 H          1 MOL1         0.0960
       7    H5      18.723463   17.707985   20.435781 H          1 MOL1         0.0960
       8    C3      19.823104   18.221392   22.230918 C.3        1 MOL1        -0.1409
       9    H6      18.936591   18.574763   22.768673 H          1 MOL1         0.0960
      10    H7      19.928360   17.154577   22.470779 H          1 MOL1         0.0960
      11    C4      21.092088   18.975129   22.706517 C.3        1 MOL1        -0.1409
      12    H8      20.983972   20.055879   22.546819 H          1 MOL1         0.0960
      13    H9      21.932369   18.656922   22.074106 H          1 MOL1         0.0960
      14    C5      21.474469   18.702716   24.185171 C.3        1 MOL1        -0.1409
      15    H10     21.286230   17.652093   24.443005 H          1 MOL1         0.0960
      16    H11     22.561335   18.834346   24.279072 H          1 MOL1         0.0960
      17    C6      20.807609   19.649634   25.218538 C.3        1 MOL1        -0.1450
      18    H12     21.069198   20.688564   24.977883 H          1 MOL1         0.0960
      19    H13     21.237666   19.452664   26.209527 H          1 MOL1         0.0960
      20    C7      19.274302   19.538553   25.318500 C.3        1 MOL1         0.0172
      21    H14     18.910462   20.239531   26.074619 H          1 MOL1         0.0934
      22    H15     18.819774   19.810957   24.363561 H          1 MOL1         0.0934
      23    N1      18.788998   18.155034   25.703731 N.4        1 MOL1        -0.5956
      24    H16     19.081464   17.450141   25.020336 H          1 MOL1         0.3624
      25    H17     17.766018   18.113096   25.766053 H          1 MOL1         0.3624
      26    H18     19.156850   17.864816   26.615554 H          1 MOL1         0.3624
@<TRIPOS>BOND
    1     1     2    1
    2     1     3    1
    3     1     4    1
    4     1     5    1
    5     5     6    1
    6     5     7    1
    7     5     8    1
    8     8     9    1
    9     8    10    1
   10     8    11    1
   11    11    12    1
   12    11    13    1
   13    11    14    1
   14    14    15    1
   15    14    16    1
   16    14    17    1
   17    17    18    1
   18    17    19    1
   19    17    20    1
   20    20    21    1
   21    20    22    1
   22    20    23    1
   23    23    24    1
   24    23    25    1
   25    23    26    1
@<TRIPOS>SUBSTRUCTURE
       1 MOL1            1 RESIDUE      1      MOL     
@<SCITEGIC>MOL_PROPERTY
VM2 Rank
SciTegic.value.IntegerValue
161

@<SCITEGIC>MOL_PROPERTY
Conf_Id
SciTegic.value.IntegerValue
1295

@<SCITEGIC>MOL_PROPERTY
Probability
SciTegic.value.DoubleValue
0.00

@<SCITEGIC>MOL_PROPERTY
Sum Probability
SciTegic.value.DoubleValue
99.91

@<SCITEGIC>MOL_PROPERTY
Delta G
SciTegic.value.DoubleValue
4.373

@<SCITEGIC>MOL_PROPERTY
G
SciTegic.value.DoubleValue
52.634

@<SCITEGIC>MOL_PROPERTY
E
SciTegic.value.DoubleValue
19.684

@<SCITEGIC>MOL_PROPERTY
-TS
SciTegic.value.DoubleValue
32.950

@<SCITEGIC>MOL_PROPERTY
U+W
SciTegic.value.DoubleValue
-1.777

@<SCITEGIC>MOL_PROPERTY
U
SciTegic.value.DoubleValue
52.362

@<SCITEGIC>MOL_PROPERTY
W
SciTegic.value.DoubleValue
-54.139

@<SCITEGIC>MOL_PROPERTY
W(PB)
SciTegic.value.DoubleValue
-56.380

@<SCITEGIC>MOL_PROPERTY
W(SA)
SciTegic.value.DoubleValue
2.241

@<SCITEGIC>MOL_PROPERTY
Valence
SciTegic.value.DoubleValue
5.335

@<SCITEGIC>MOL_PROPERTY
Coulomb
SciTegic.value.DoubleValue
46.481

@<SCITEGIC>MOL_PROPERTY
VdW
SciTegic.value.DoubleValue
0.546

@<SCITEGIC>MOL_PROPERTY
VdW6
SciTegic.value.DoubleValue
-8.933

@<SCITEGIC>MOL_PROPERTY
VdW12
SciTegic.value.DoubleValue
9.478

@<SCITEGIC>MOL_PROPERTY
Bond
SciTegic.value.DoubleValue
0.278

@<SCITEGIC>MOL_PROPERTY
Angle
SciTegic.value.DoubleValue
1.662

@<SCITEGIC>MOL_PROPERTY
Pdih
SciTegic.value.DoubleValue
3.395

@<SCITEGIC>MOL_PROPERTY
Idih
SciTegic.value.DoubleValue
0.000

@<SCITEGIC>MOL_PROPERTY
Tether
SciTegic.value.DoubleValue
0.000

@<TRIPOS>MOLECULE
guest-s14_vm2.mol2 : vm2 ligand conformer 162
          26          25           1
SMALL
USER_CHARGES
 
@<TRIPOS>ATOM
       1    C1      19.031824   19.685969   20.267346 C.3        1 MOL1        -0.2400
       2    H1      18.368657   19.699549   21.139271 H          1 MOL1         0.0971
       3    H2      19.344517   20.718672   20.065359 H          1 MOL1         0.0971
       4    H3      18.443257   19.342320   19.406885 H          1 MOL1         0.0971
       5    C2      20.259554   18.770530   20.483178 C.3        1 MOL1        -0.1385
       6    H4      20.864228   18.793670   19.565714 H          1 MOL1         0.0960
       7    H5      19.940808   17.726328   20.608141 H          1 MOL1         0.0960
       8    C3      21.150981   19.208727   21.673716 C.3        1 MOL1        -0.1409
       9    H6      22.198981   19.018925   21.403378 H          1 MOL1         0.0960
      10    H7      21.077277   20.294551   21.824222 H          1 MOL1         0.0960
      11    C4      20.872210   18.465926   23.006055 C.3        1 MOL1        -0.1409
      12    H8      21.610595   18.809634   23.741990 H          1 MOL1         0.0960
      13    H9      21.054990   17.391277   22.868821 H          1 MOL1         0.0960
      14    C5      19.443844   18.676078   23.566193 C.3        1 MOL1        -0.1409
      15    H10     19.221313   19.749473   23.628591 H          1 MOL1         0.0960
      16    H11     18.715653   18.247160   22.866095 H          1 MOL1         0.0960
      17    C6      19.224122   18.008597   24.947400 C.3        1 MOL1        -0.1450
      18    H12     19.383407   16.925976   24.855687 H          1 MOL1         0.0960
      19    H13     18.176264   18.138725   25.248818 H          1 MOL1         0.0960
      20    C7      20.138248   18.550843   26.065164 C.3        1 MOL1         0.0172
      21    H14     19.927640   18.017500   26.996121 H          1 MOL1         0.0934
      22    H15     21.185402   18.376780   25.805284 H          1 MOL1         0.0934
      23    N1      19.960217   20.032331   26.331946 N.4        1 MOL1        -0.5956
      24    H16     20.175083   20.593244   25.501745 H          1 MOL1         0.3624
      25    H17     20.574190   20.360504   27.085272 H          1 MOL1         0.3624
      26    H18     18.999046   20.255971   26.609442 H          1 MOL1         0.3624
@<TRIPOS>BOND
    1     1     2    1
    2     1     3    1
    3     1     4    1
    4     1     5    1
    5     5     6    1
    6     5     7    1
    7     5     8    1
    8     8     9    1
    9     8    10    1
   10     8    11    1
   11    11    12    1
   12    11    13    1
   13    11    14    1
   14    14    15    1
   15    14    16    1
   16    14    17    1
   17    17    18    1
   18    17    19    1
   19    17    20    1
   20    20    21    1
   21    20    22    1
   22    20    23    1
   23    23    24    1
   24    23    25    1
   25    23    26    1
@<TRIPOS>SUBSTRUCTURE
       1 MOL1            1 RESIDUE      1      MOL     
@<SCITEGIC>MOL_PROPERTY
VM2 Rank
SciTegic.value.IntegerValue
162

@<SCITEGIC>MOL_PROPERTY
Conf_Id
SciTegic.value.IntegerValue
238

@<SCITEGIC>MOL_PROPERTY
Probability
SciTegic.value.DoubleValue
0.00

@<SCITEGIC>MOL_PROPERTY
Sum Probability
SciTegic.value.DoubleValue
99.92

@<SCITEGIC>MOL_PROPERTY
Delta G
SciTegic.value.DoubleValue
4.374

@<SCITEGIC>MOL_PROPERTY
G
SciTegic.value.DoubleValue
52.635

@<SCITEGIC>MOL_PROPERTY
E
SciTegic.value.DoubleValue
19.671

@<SCITEGIC>MOL_PROPERTY
-TS
SciTegic.value.DoubleValue
32.964

@<SCITEGIC>MOL_PROPERTY
U+W
SciTegic.value.DoubleValue
-1.791

@<SCITEGIC>MOL_PROPERTY
U
SciTegic.value.DoubleValue
52.090

@<SCITEGIC>MOL_PROPERTY
W
SciTegic.value.DoubleValue
-53.881

@<SCITEGIC>MOL_PROPERTY
W(PB)
SciTegic.value.DoubleValue
-56.145

@<SCITEGIC>MOL_PROPERTY
W(SA)
SciTegic.value.DoubleValue
2.264

@<SCITEGIC>MOL_PROPERTY
Valence
SciTegic.value.DoubleValue
5.620

@<SCITEGIC>MOL_PROPERTY
Coulomb
SciTegic.value.DoubleValue
45.628

@<SCITEGIC>MOL_PROPERTY
VdW
SciTegic.value.DoubleValue
0.841

@<SCITEGIC>MOL_PROPERTY
VdW6
SciTegic.value.DoubleValue
-8.591

@<SCITEGIC>MOL_PROPERTY
VdW12
SciTegic.value.DoubleValue
9.432

@<SCITEGIC>MOL_PROPERTY
Bond
SciTegic.value.DoubleValue
0.266

@<SCITEGIC>MOL_PROPERTY
Angle
SciTegic.value.DoubleValue
1.473

@<SCITEGIC>MOL_PROPERTY
Pdih
SciTegic.value.DoubleValue
3.881

@<SCITEGIC>MOL_PROPERTY
Idih
SciTegic.value.DoubleValue
0.000

@<SCITEGIC>MOL_PROPERTY
Tether
SciTegic.value.DoubleValue
0.000

@<TRIPOS>MOLECULE
guest-s14_vm2.mol2 : vm2 ligand conformer 163
          26          25           1
SMALL
USER_CHARGES
 
@<TRIPOS>ATOM
       1    C1      20.460812   17.974715   19.996882 C.3        1 MOL1        -0.2400
       2    H1      20.140311   17.030955   19.536975 H          1 MOL1         0.0971
       3    H2      20.669983   18.686576   19.187876 H          1 MOL1         0.0971
       4    H3      21.398426   17.779497   20.531085 H          1 MOL1         0.0971
       5    C2      19.363392   18.515154   20.942344 C.3        1 MOL1        -0.1385
       6    H4      19.169013   17.781628   21.734102 H          1 MOL1         0.0960
       7    H5      18.427452   18.604956   20.373476 H          1 MOL1         0.0960
       8    C3      19.707498   19.900819   21.547321 C.3        1 MOL1        -0.1409
       9    H6      19.984236   20.574964   20.724996 H          1 MOL1         0.0960
      10    H7      18.806093   20.340985   21.995293 H          1 MOL1         0.0960
      11    C4      20.854842   19.890828   22.594171 C.3        1 MOL1        -0.1409
      12    H8      21.430682   20.819076   22.475793 H          1 MOL1         0.0960
      13    H9      21.563860   19.078688   22.391112 H          1 MOL1         0.0960
      14    C5      20.384925   19.820103   24.070135 C.3        1 MOL1        -0.1409
      15    H10     21.272454   19.901280   24.711272 H          1 MOL1         0.0960
      16    H11     19.762345   20.696467   24.297685 H          1 MOL1         0.0960
      17    C6      19.606894   18.530530   24.428431 C.3        1 MOL1        -0.1450
      18    H12     20.188953   17.645114   24.140402 H          1 MOL1         0.0960
      19    H13     18.670878   18.498130   23.857446 H          1 MOL1         0.0960
      20    C7      19.248982   18.447665   25.924985 C.3        1 MOL1         0.0172
      21    H14     18.692455   19.341133   26.220609 H          1 MOL1         0.0934
      22    H15     18.610878   17.576500   26.096569 H          1 MOL1         0.0934
      23    N1      20.453655   18.319186   26.836731 N.4        1 MOL1        -0.5956
      24    H16     21.080239   19.125699   26.754693 H          1 MOL1         0.3624
      25    H17     21.006208   17.482818   26.621915 H          1 MOL1         0.3624
      26    H18     20.179128   18.251663   27.822818 H          1 MOL1         0.3624
@<TRIPOS>BOND
    1     1     2    1
    2     1     3    1
    3     1     4    1
    4     1     5    1
    5     5     6    1
    6     5     7    1
    7     5     8    1
    8     8     9    1
    9     8    10    1
   10     8    11    1
   11    11    12    1
   12    11    13    1
   13    11    14    1
   14    14    15    1
   15    14    16    1
   16    14    17    1
   17    17    18    1
   18    17    19    1
   19    17    20    1
   20    20    21    1
   21    20    22    1
   22    20    23    1
   23    23    24    1
   24    23    25    1
   25    23    26    1
@<TRIPOS>SUBSTRUCTURE
       1 MOL1            1 RESIDUE      1      MOL     
@<SCITEGIC>MOL_PROPERTY
VM2 Rank
SciTegic.value.IntegerValue
163

@<SCITEGIC>MOL_PROPERTY
Conf_Id
SciTegic.value.IntegerValue
283

@<SCITEGIC>MOL_PROPERTY
Probability
SciTegic.value.DoubleValue
0.00

@<SCITEGIC>MOL_PROPERTY
Sum Probability
SciTegic.value.DoubleValue
99.92

@<SCITEGIC>MOL_PROPERTY
Delta G
SciTegic.value.DoubleValue
4.418

@<SCITEGIC>MOL_PROPERTY
G
SciTegic.value.DoubleValue
52.679

@<SCITEGIC>MOL_PROPERTY
E
SciTegic.value.DoubleValue
19.809

@<SCITEGIC>MOL_PROPERTY
-TS
SciTegic.value.DoubleValue
32.870

@<SCITEGIC>MOL_PROPERTY
U+W
SciTegic.value.DoubleValue
-1.653

@<SCITEGIC>MOL_PROPERTY
U
SciTegic.value.DoubleValue
52.213

@<SCITEGIC>MOL_PROPERTY
W
SciTegic.value.DoubleValue
-53.866

@<SCITEGIC>MOL_PROPERTY
W(PB)
SciTegic.value.DoubleValue
-56.128

@<SCITEGIC>MOL_PROPERTY
W(SA)
SciTegic.value.DoubleValue
2.262

@<SCITEGIC>MOL_PROPERTY
Valence
SciTegic.value.DoubleValue
6.034

@<SCITEGIC>MOL_PROPERTY
Coulomb
SciTegic.value.DoubleValue
45.240

@<SCITEGIC>MOL_PROPERTY
VdW
SciTegic.value.DoubleValue
0.939

@<SCITEGIC>MOL_PROPERTY
VdW6
SciTegic.value.DoubleValue
-8.400

@<SCITEGIC>MOL_PROPERTY
VdW12
SciTegic.value.DoubleValue
9.339

@<SCITEGIC>MOL_PROPERTY
Bond
SciTegic.value.DoubleValue
0.286

@<SCITEGIC>MOL_PROPERTY
Angle
SciTegic.value.DoubleValue
1.513

@<SCITEGIC>MOL_PROPERTY
Pdih
SciTegic.value.DoubleValue
4.235

@<SCITEGIC>MOL_PROPERTY
Idih
SciTegic.value.DoubleValue
0.000

@<SCITEGIC>MOL_PROPERTY
Tether
SciTegic.value.DoubleValue
0.000

@<TRIPOS>MOLECULE
guest-s14_vm2.mol2 : vm2 ligand conformer 164
          26          25           1
SMALL
USER_CHARGES
 
@<TRIPOS>ATOM
       1    C1      21.100914   19.719120   19.973759 C.3        1 MOL1        -0.2400
       2    H1      21.734443   20.429768   20.520394 H          1 MOL1         0.0971
       3    H2      21.690895   19.312490   19.142126 H          1 MOL1         0.0971
       4    H3      20.254769   20.273423   19.547106 H          1 MOL1         0.0971
       5    C2      20.611053   18.585654   20.899605 C.3        1 MOL1        -0.1385
       6    H4      21.477432   18.029123   21.283393 H          1 MOL1         0.0960
       7    H5      20.010197   17.873429   20.316787 H          1 MOL1         0.0960
       8    C3      19.774895   19.131496   22.078080 C.3        1 MOL1        -0.1409
       9    H6      20.376620   19.856680   22.639670 H          1 MOL1         0.0960
      10    H7      18.906538   19.679414   21.686849 H          1 MOL1         0.0960
      11    C4      19.287612   17.996384   23.010699 C.3        1 MOL1        -0.1409
      12    H8      20.140465   17.427213   23.400361 H          1 MOL1         0.0960
      13    H9      18.703291   17.280146   22.416481 H          1 MOL1         0.0960
      14    C5      18.398334   18.491459   24.179614 C.3        1 MOL1        -0.1409
      15    H10     17.490138   18.947103   23.761487 H          1 MOL1         0.0960
      16    H11     18.056330   17.618759   24.753016 H          1 MOL1         0.0960
      17    C6      19.052842   19.503881   25.157715 C.3        1 MOL1        -0.1450
      18    H12     18.297693   19.778944   25.905946 H          1 MOL1         0.0960
      19    H13     19.310096   20.437940   24.642368 H          1 MOL1         0.0960
      20    C7      20.280645   18.955933   25.914519 C.3        1 MOL1         0.0172
      21    H14     20.432648   19.544248   26.823494 H          1 MOL1         0.0934
      22    H15     20.100297   17.918472   26.208431 H          1 MOL1         0.0934
      23    N1      21.574706   19.015074   25.127010 N.4        1 MOL1        -0.5956
      24    H16     21.500112   18.504931   24.241938 H          1 MOL1         0.3624
      25    H17     22.357469   18.608250   25.650739 H          1 MOL1         0.3624
      26    H18     21.836005   19.980185   24.900872 H          1 MOL1         0.3624
@<TRIPOS>BOND
    1     1     2    1
    2     1     3    1
    3     1     4    1
    4     1     5    1
    5     5     6    1
    6     5     7    1
    7     5     8    1
    8     8     9    1
    9     8    10    1
   10     8    11    1
   11    11    12    1
   12    11    13    1
   13    11    14    1
   14    14    15    1
   15    14    16    1
   16    14    17    1
   17    17    18    1
   18    17    19    1
   19    17    20    1
   20    20    21    1
   21    20    22    1
   22    20    23    1
   23    23    24    1
   24    23    25    1
   25    23    26    1
@<TRIPOS>SUBSTRUCTURE
       1 MOL1            1 RESIDUE      1      MOL     
@<SCITEGIC>MOL_PROPERTY
VM2 Rank
SciTegic.value.IntegerValue
164

@<SCITEGIC>MOL_PROPERTY
Conf_Id
SciTegic.value.IntegerValue
821

@<SCITEGIC>MOL_PROPERTY
Probability
SciTegic.value.DoubleValue
0.00

@<SCITEGIC>MOL_PROPERTY
Sum Probability
SciTegic.value.DoubleValue
99.93

@<SCITEGIC>MOL_PROPERTY
Delta G
SciTegic.value.DoubleValue
4.443

@<SCITEGIC>MOL_PROPERTY
G
SciTegic.value.DoubleValue
52.705

@<SCITEGIC>MOL_PROPERTY
E
SciTegic.value.DoubleValue
19.590

@<SCITEGIC>MOL_PROPERTY
-TS
SciTegic.value.DoubleValue
33.115

@<SCITEGIC>MOL_PROPERTY
U+W
SciTegic.value.DoubleValue
-1.872

@<SCITEGIC>MOL_PROPERTY
U
SciTegic.value.DoubleValue
51.717

@<SCITEGIC>MOL_PROPERTY
W
SciTegic.value.DoubleValue
-53.589

@<SCITEGIC>MOL_PROPERTY
W(PB)
SciTegic.value.DoubleValue
-55.826

@<SCITEGIC>MOL_PROPERTY
W(SA)
SciTegic.value.DoubleValue
2.237

@<SCITEGIC>MOL_PROPERTY
Valence
SciTegic.value.DoubleValue
4.225

@<SCITEGIC>MOL_PROPERTY
Coulomb
SciTegic.value.DoubleValue
47.188

@<SCITEGIC>MOL_PROPERTY
VdW
SciTegic.value.DoubleValue
0.304

@<SCITEGIC>MOL_PROPERTY
VdW6
SciTegic.value.DoubleValue
-8.652

@<SCITEGIC>MOL_PROPERTY
VdW12
SciTegic.value.DoubleValue
8.957

@<SCITEGIC>MOL_PROPERTY
Bond
SciTegic.value.DoubleValue
0.232

@<SCITEGIC>MOL_PROPERTY
Angle
SciTegic.value.DoubleValue
1.462

@<SCITEGIC>MOL_PROPERTY
Pdih
SciTegic.value.DoubleValue
2.532

@<SCITEGIC>MOL_PROPERTY
Idih
SciTegic.value.DoubleValue
0.000

@<SCITEGIC>MOL_PROPERTY
Tether
SciTegic.value.DoubleValue
0.000

@<TRIPOS>MOLECULE
guest-s14_vm2.mol2 : vm2 ligand conformer 165
          26          25           1
SMALL
USER_CHARGES
 
@<TRIPOS>ATOM
       1    C1      19.006368   18.338630   19.903719 C.3        1 MOL1        -0.2400
       2    H1      18.079250   18.020578   20.398173 H          1 MOL1         0.0971
       3    H2      18.849917   19.347560   19.500198 H          1 MOL1         0.0971
       4    H3      19.186513   17.661936   19.058336 H          1 MOL1         0.0971
       5    C2      20.196704   18.312546   20.885716 C.3        1 MOL1        -0.1385
       6    H4      21.114114   18.601055   20.353653 H          1 MOL1         0.0960
       7    H5      20.349219   17.285484   21.245598 H          1 MOL1         0.0960
       8    C3      19.969377   19.259618   22.084581 C.3        1 MOL1        -0.1409
       9    H6      19.825823   20.285312   21.717614 H          1 MOL1         0.0960
      10    H7      19.040750   18.976034   22.595053 H          1 MOL1         0.0960
      11    C4      21.159935   19.230411   23.073228 C.3        1 MOL1        -0.1409
      12    H8      22.075032   19.502478   22.529079 H          1 MOL1         0.0960
      13    H9      21.329135   18.210631   23.440065 H          1 MOL1         0.0960
      14    C5      21.000592   20.206607   24.266512 C.3        1 MOL1        -0.1409
      15    H10     21.909746   20.158553   24.881728 H          1 MOL1         0.0960
      16    H11     20.958789   21.233267   23.877303 H          1 MOL1         0.0960
      17    C6      19.768004   19.975310   25.181548 C.3        1 MOL1        -0.1450
      18    H12     18.833133   20.123551   24.626329 H          1 MOL1         0.0960
      19    H13     19.777484   20.754447   25.955248 H          1 MOL1         0.0960
      20    C7      19.753160   18.608403   25.896980 C.3        1 MOL1         0.0172
      21    H14     20.763038   18.355548   26.230819 H          1 MOL1         0.0934
      22    H15     19.110731   18.673239   26.779326 H          1 MOL1         0.0934
      23    N1      19.226860   17.467475   25.048715 N.4        1 MOL1        -0.5956
      24    H16     18.248447   17.615382   24.780974 H          1 MOL1         0.3624
      25    H17     19.268224   16.572089   25.547802 H          1 MOL1         0.3624
      26    H18     19.765985   17.361644   24.184247 H          1 MOL1         0.3624
@<TRIPOS>BOND
    1     1     2    1
    2     1     3    1
    3     1     4    1
    4     1     5    1
    5     5     6    1
    6     5     7    1
    7     5     8    1
    8     8     9    1
    9     8    10    1
   10     8    11    1
   11    11    12    1
   12    11    13    1
   13    11    14    1
   14    14    15    1
   15    14    16    1
   16    14    17    1
   17    17    18    1
   18    17    19    1
   19    17    20    1
   20    20    21    1
   21    20    22    1
   22    20    23    1
   23    23    24    1
   24    23    25    1
   25    23    26    1
@<TRIPOS>SUBSTRUCTURE
       1 MOL1            1 RESIDUE      1      MOL     
@<SCITEGIC>MOL_PROPERTY
VM2 Rank
SciTegic.value.IntegerValue
165

@<SCITEGIC>MOL_PROPERTY
Conf_Id
SciTegic.value.IntegerValue
545

@<SCITEGIC>MOL_PROPERTY
Probability
SciTegic.value.DoubleValue
0.00

@<SCITEGIC>MOL_PROPERTY
Sum Probability
SciTegic.value.DoubleValue
99.93

@<SCITEGIC>MOL_PROPERTY
Delta G
SciTegic.value.DoubleValue
4.465

@<SCITEGIC>MOL_PROPERTY
G
SciTegic.value.DoubleValue
52.726

@<SCITEGIC>MOL_PROPERTY
E
SciTegic.value.DoubleValue
19.612

@<SCITEGIC>MOL_PROPERTY
-TS
SciTegic.value.DoubleValue
33.114

@<SCITEGIC>MOL_PROPERTY
U+W
SciTegic.value.DoubleValue
-1.850

@<SCITEGIC>MOL_PROPERTY
U
SciTegic.value.DoubleValue
51.717

@<SCITEGIC>MOL_PROPERTY
W
SciTegic.value.DoubleValue
-53.568

@<SCITEGIC>MOL_PROPERTY
W(PB)
SciTegic.value.DoubleValue
-55.822

@<SCITEGIC>MOL_PROPERTY
W(SA)
SciTegic.value.DoubleValue
2.254

@<SCITEGIC>MOL_PROPERTY
Valence
SciTegic.value.DoubleValue
4.225

@<SCITEGIC>MOL_PROPERTY
Coulomb
SciTegic.value.DoubleValue
47.188

@<SCITEGIC>MOL_PROPERTY
VdW
SciTegic.value.DoubleValue
0.304

@<SCITEGIC>MOL_PROPERTY
VdW6
SciTegic.value.DoubleValue
-8.652

@<SCITEGIC>MOL_PROPERTY
VdW12
SciTegic.value.DoubleValue
8.956

@<SCITEGIC>MOL_PROPERTY
Bond
SciTegic.value.DoubleValue
0.232

@<SCITEGIC>MOL_PROPERTY
Angle
SciTegic.value.DoubleValue
1.463

@<SCITEGIC>MOL_PROPERTY
Pdih
SciTegic.value.DoubleValue
2.531

@<SCITEGIC>MOL_PROPERTY
Idih
SciTegic.value.DoubleValue
0.000

@<SCITEGIC>MOL_PROPERTY
Tether
SciTegic.value.DoubleValue
0.000

@<TRIPOS>MOLECULE
guest-s14_vm2.mol2 : vm2 ligand conformer 166
          26          25           1
SMALL
USER_CHARGES
 
@<TRIPOS>ATOM
       1    C1      20.770238   20.152225   20.676617 C.3        1 MOL1        -0.2400
       2    H1      21.264369   19.661383   19.828191 H          1 MOL1         0.0971
       3    H2      20.628047   21.208969   20.416106 H          1 MOL1         0.0971
       4    H3      21.449711   20.110947   21.536245 H          1 MOL1         0.0971
       5    C2      19.411631   19.483258   20.987064 C.3        1 MOL1        -0.1385
       6    H4      18.750079   19.618480   20.120056 H          1 MOL1         0.0960
       7    H5      18.915165   19.995711   21.820792 H          1 MOL1         0.0960
       8    C3      19.528341   17.967922   21.282197 C.3        1 MOL1        -0.1409
       9    H6      18.517987   17.551358   21.395148 H          1 MOL1         0.0960
      10    H7      19.956198   17.472214   20.399944 H          1 MOL1         0.0960
      11    C4      20.372966   17.578474   22.525509 C.3        1 MOL1        -0.1409
      12    H8      21.411855   17.915108   22.412129 H          1 MOL1         0.0960
      13    H9      20.426309   16.481216   22.548490 H          1 MOL1         0.0960
      14    C5      19.790066   18.052009   23.883181 C.3        1 MOL1        -0.1409
      15    H10     18.695715   18.125732   23.818751 H          1 MOL1         0.0960
      16    H11     19.998433   17.274751   24.630365 H          1 MOL1         0.0960
      17    C6      20.390123   19.389273   24.386609 C.3        1 MOL1        -0.1450
      18    H12     20.231513   20.179264   23.645039 H          1 MOL1         0.0960
      19    H13     21.477135   19.290178   24.506066 H          1 MOL1         0.0960
      20    C7      19.769464   19.853767   25.718305 C.3        1 MOL1         0.0172
      21    H14     20.167866   20.837852   25.979844 H          1 MOL1         0.0934
      22    H15     18.685463   19.943467   25.607450 H          1 MOL1         0.0934
      23    N1      20.048171   18.922072   26.881518 N.4        1 MOL1        -0.5956
      24    H16     19.633072   19.267349   27.753722 H          1 MOL1         0.3624
      25    H17     21.053537   18.814241   27.050549 H          1 MOL1         0.3624
      26    H18     19.666035   17.985562   26.717779 H          1 MOL1         0.3624
@<TRIPOS>BOND
    1     1     2    1
    2     1     3    1
    3     1     4    1
    4     1     5    1
    5     5     6    1
    6     5     7    1
    7     5     8    1
    8     8     9    1
    9     8    10    1
   10     8    11    1
   11    11    12    1
   12    11    13    1
   13    11    14    1
   14    14    15    1
   15    14    16    1
   16    14    17    1
   17    17    18    1
   18    17    19    1
   19    17    20    1
   20    20    21    1
   21    20    22    1
   22    20    23    1
   23    23    24    1
   24    23    25    1
   25    23    26    1
@<TRIPOS>SUBSTRUCTURE
       1 MOL1            1 RESIDUE      1      MOL     
@<SCITEGIC>MOL_PROPERTY
VM2 Rank
SciTegic.value.IntegerValue
166

@<SCITEGIC>MOL_PROPERTY
Conf_Id
SciTegic.value.IntegerValue
263

@<SCITEGIC>MOL_PROPERTY
Probability
SciTegic.value.DoubleValue
0.00

@<SCITEGIC>MOL_PROPERTY
Sum Probability
SciTegic.value.DoubleValue
99.94

@<SCITEGIC>MOL_PROPERTY
Delta G
SciTegic.value.DoubleValue
4.469

@<SCITEGIC>MOL_PROPERTY
G
SciTegic.value.DoubleValue
52.730

@<SCITEGIC>MOL_PROPERTY
E
SciTegic.value.DoubleValue
19.465

@<SCITEGIC>MOL_PROPERTY
-TS
SciTegic.value.DoubleValue
33.265

@<SCITEGIC>MOL_PROPERTY
U+W
SciTegic.value.DoubleValue
-1.997

@<SCITEGIC>MOL_PROPERTY
U
SciTegic.value.DoubleValue
51.906

@<SCITEGIC>MOL_PROPERTY
W
SciTegic.value.DoubleValue
-53.903

@<SCITEGIC>MOL_PROPERTY
W(PB)
SciTegic.value.DoubleValue
-56.108

@<SCITEGIC>MOL_PROPERTY
W(SA)
SciTegic.value.DoubleValue
2.205

@<SCITEGIC>MOL_PROPERTY
Valence
SciTegic.value.DoubleValue
5.914

@<SCITEGIC>MOL_PROPERTY
Coulomb
SciTegic.value.DoubleValue
45.360

@<SCITEGIC>MOL_PROPERTY
VdW
SciTegic.value.DoubleValue
0.633

@<SCITEGIC>MOL_PROPERTY
VdW6
SciTegic.value.DoubleValue
-8.891

@<SCITEGIC>MOL_PROPERTY
VdW12
SciTegic.value.DoubleValue
9.524

@<SCITEGIC>MOL_PROPERTY
Bond
SciTegic.value.DoubleValue
0.284

@<SCITEGIC>MOL_PROPERTY
Angle
SciTegic.value.DoubleValue
1.760

@<SCITEGIC>MOL_PROPERTY
Pdih
SciTegic.value.DoubleValue
3.870

@<SCITEGIC>MOL_PROPERTY
Idih
SciTegic.value.DoubleValue
0.000

@<SCITEGIC>MOL_PROPERTY
Tether
SciTegic.value.DoubleValue
0.000

@<TRIPOS>MOLECULE
guest-s14_vm2.mol2 : vm2 ligand conformer 167
          26          25           1
SMALL
USER_CHARGES
 
@<TRIPOS>ATOM
       1    C1      18.582980   19.113478   20.880867 C.3        1 MOL1        -0.2400
       2    H1      17.978369   18.271379   21.241617 H          1 MOL1         0.0971
       3    H2      18.493655   19.931890   21.602486 H          1 MOL1         0.0971
       4    H3      18.141410   19.459542   19.937404 H          1 MOL1         0.0971
       5    C2      20.052931   18.687248   20.661716 C.3        1 MOL1        -0.1385
       6    H4      20.644340   19.536651   20.292733 H          1 MOL1         0.0960
       7    H5      20.067389   17.938331   19.857475 H          1 MOL1         0.0960
       8    C3      20.724400   18.067149   21.914849 C.3        1 MOL1        -0.1409
       9    H6      19.993882   17.492664   22.499243 H          1 MOL1         0.0960
      10    H7      21.458695   17.328136   21.565595 H          1 MOL1         0.0960
      11    C4      21.487909   19.073931   22.817374 C.3        1 MOL1        -0.1409
      12    H8      22.243222   19.591283   22.210024 H          1 MOL1         0.0960
      13    H9      22.057293   18.507814   23.566677 H          1 MOL1         0.0960
      14    C5      20.622077   20.137210   23.541945 C.3        1 MOL1        -0.1409
      15    H10     21.284972   20.770100   24.148006 H          1 MOL1         0.0960
      16    H11     20.172913   20.811917   22.802729 H          1 MOL1         0.0960
      17    C6      19.516628   19.558347   24.460059 C.3        1 MOL1        -0.1450
      18    H12     18.784241   18.999245   23.865045 H          1 MOL1         0.0960
      19    H13     18.968816   20.389995   24.922567 H          1 MOL1         0.0960
      20    C7      20.081462   18.649633   25.567405 C.3        1 MOL1         0.0172
      21    H14     20.595453   17.796262   25.117424 H          1 MOL1         0.0934
      22    H15     20.802986   19.208432   26.169449 H          1 MOL1         0.0934
      23    N1      19.012612   18.112005   26.496784 N.4        1 MOL1        -0.5956
      24    H16     18.315493   17.552694   25.994617 H          1 MOL1         0.3624
      25    H17     18.507960   18.865727   26.974637 H          1 MOL1         0.3624
      26    H18     19.409928   17.509878   27.226088 H          1 MOL1         0.3624
@<TRIPOS>BOND
    1     1     2    1
    2     1     3    1
    3     1     4    1
    4     1     5    1
    5     5     6    1
    6     5     7    1
    7     5     8    1
    8     8     9    1
    9     8    10    1
   10     8    11    1
   11    11    12    1
   12    11    13    1
   13    11    14    1
   14    14    15    1
   15    14    16    1
   16    14    17    1
   17    17    18    1
   18    17    19    1
   19    17    20    1
   20    20    21    1
   21    20    22    1
   22    20    23    1
   23    23    24    1
   24    23    25    1
   25    23    26    1
@<TRIPOS>SUBSTRUCTURE
       1 MOL1            1 RESIDUE      1      MOL     
@<SCITEGIC>MOL_PROPERTY
VM2 Rank
SciTegic.value.IntegerValue
167

@<SCITEGIC>MOL_PROPERTY
Conf_Id
SciTegic.value.IntegerValue
214

@<SCITEGIC>MOL_PROPERTY
Probability
SciTegic.value.DoubleValue
0.00

@<SCITEGIC>MOL_PROPERTY
Sum Probability
SciTegic.value.DoubleValue
99.94

@<SCITEGIC>MOL_PROPERTY
Delta G
SciTegic.value.DoubleValue
4.486

@<SCITEGIC>MOL_PROPERTY
G
SciTegic.value.DoubleValue
52.747

@<SCITEGIC>MOL_PROPERTY
E
SciTegic.value.DoubleValue
19.426

@<SCITEGIC>MOL_PROPERTY
-TS
SciTegic.value.DoubleValue
33.321

@<SCITEGIC>MOL_PROPERTY
U+W
SciTegic.value.DoubleValue
-2.035

@<SCITEGIC>MOL_PROPERTY
U
SciTegic.value.DoubleValue
52.153

@<SCITEGIC>MOL_PROPERTY
W
SciTegic.value.DoubleValue
-54.188

@<SCITEGIC>MOL_PROPERTY
W(PB)
SciTegic.value.DoubleValue
-56.391

@<SCITEGIC>MOL_PROPERTY
W(SA)
SciTegic.value.DoubleValue
2.203

@<SCITEGIC>MOL_PROPERTY
Valence
SciTegic.value.DoubleValue
5.986

@<SCITEGIC>MOL_PROPERTY
Coulomb
SciTegic.value.DoubleValue
45.781

@<SCITEGIC>MOL_PROPERTY
VdW
SciTegic.value.DoubleValue
0.386

@<SCITEGIC>MOL_PROPERTY
VdW6
SciTegic.value.DoubleValue
-9.288

@<SCITEGIC>MOL_PROPERTY
VdW12
SciTegic.value.DoubleValue
9.674

@<SCITEGIC>MOL_PROPERTY
Bond
SciTegic.value.DoubleValue
0.289

@<SCITEGIC>MOL_PROPERTY
Angle
SciTegic.value.DoubleValue
2.079

@<SCITEGIC>MOL_PROPERTY
Pdih
SciTegic.value.DoubleValue
3.617

@<SCITEGIC>MOL_PROPERTY
Idih
SciTegic.value.DoubleValue
0.000

@<SCITEGIC>MOL_PROPERTY
Tether
SciTegic.value.DoubleValue
0.000

@<TRIPOS>MOLECULE
guest-s14_vm2.mol2 : vm2 ligand conformer 168
          26          25           1
SMALL
USER_CHARGES
 
@<TRIPOS>ATOM
       1    C1      19.863518   18.988436   19.703963 C.3        1 MOL1        -0.2400
       2    H1      20.682376   19.712039   19.799928 H          1 MOL1         0.0971
       3    H2      20.006515   18.453599   18.756111 H          1 MOL1         0.0971
       4    H3      18.918891   19.543558   19.636729 H          1 MOL1         0.0971
       5    C2      19.841306   17.994267   20.887263 C.3        1 MOL1        -0.1385
       6    H4      20.808854   17.477435   20.954199 H          1 MOL1         0.0960
       7    H5      19.091955   17.217273   20.680952 H          1 MOL1         0.0960
       8    C3      19.506844   18.656730   22.245734 C.3        1 MOL1        -0.1409
       9    H6      18.533274   19.160760   22.174524 H          1 MOL1         0.0960
      10    H7      19.386848   17.860234   22.987649 H          1 MOL1         0.0960
      11    C4      20.583246   19.667746   22.718360 C.3        1 MOL1        -0.1409
      12    H8      20.641411   20.481404   21.983746 H          1 MOL1         0.0960
      13    H9      21.574323   19.193853   22.726280 H          1 MOL1         0.0960
      14    C5      20.286974   20.303282   24.102169 C.3        1 MOL1        -0.1409
      15    H10     20.725597   21.310768   24.109266 H          1 MOL1         0.0960
      16    H11     19.207084   20.455203   24.231123 H          1 MOL1         0.0960
      17    C6      20.883330   19.535512   25.312036 C.3        1 MOL1        -0.1450
      18    H12     20.732543   20.131717   26.221773 H          1 MOL1         0.0960
      19    H13     21.970650   19.450258   25.184728 H          1 MOL1         0.0960
      20    C7      20.302735   18.127751   25.544900 C.3        1 MOL1         0.0172
      21    H14     20.490842   17.499793   24.671073 H          1 MOL1         0.0934
      22    H15     20.802189   17.668592   26.402332 H          1 MOL1         0.0934
      23    N1      18.813048   18.125276   25.826575 N.4        1 MOL1        -0.5956
      24    H16     18.455092   17.176170   25.978971 H          1 MOL1         0.3624
      25    H17     18.281754   18.529765   25.049638 H          1 MOL1         0.3624
      26    H18     18.585248   18.669250   26.665135 H          1 MOL1         0.3624
@<TRIPOS>BOND
    1     1     2    1
    2     1     3    1
    3     1     4    1
    4     1     5    1
    5     5     6    1
    6     5     7    1
    7     5     8    1
    8     8     9    1
    9     8    10    1
   10     8    11    1
   11    11    12    1
   12    11    13    1
   13    11    14    1
   14    14    15    1
   15    14    16    1
   16    14    17    1
   17    17    18    1
   18    17    19    1
   19    17    20    1
   20    20    21    1
   21    20    22    1
   22    20    23    1
   23    23    24    1
   24    23    25    1
   25    23    26    1
@<TRIPOS>SUBSTRUCTURE
       1 MOL1            1 RESIDUE      1      MOL     
@<SCITEGIC>MOL_PROPERTY
VM2 Rank
SciTegic.value.IntegerValue
168

@<SCITEGIC>MOL_PROPERTY
Conf_Id
SciTegic.value.IntegerValue
286

@<SCITEGIC>MOL_PROPERTY
Probability
SciTegic.value.DoubleValue
0.00

@<SCITEGIC>MOL_PROPERTY
Sum Probability
SciTegic.value.DoubleValue
99.94

@<SCITEGIC>MOL_PROPERTY
Delta G
SciTegic.value.DoubleValue
4.492

@<SCITEGIC>MOL_PROPERTY
G
SciTegic.value.DoubleValue
52.754

@<SCITEGIC>MOL_PROPERTY
E
SciTegic.value.DoubleValue
19.764

@<SCITEGIC>MOL_PROPERTY
-TS
SciTegic.value.DoubleValue
32.990

@<SCITEGIC>MOL_PROPERTY
U+W
SciTegic.value.DoubleValue
-1.697

@<SCITEGIC>MOL_PROPERTY
U
SciTegic.value.DoubleValue
52.488

@<SCITEGIC>MOL_PROPERTY
W
SciTegic.value.DoubleValue
-54.186

@<SCITEGIC>MOL_PROPERTY
W(PB)
SciTegic.value.DoubleValue
-56.455

@<SCITEGIC>MOL_PROPERTY
W(SA)
SciTegic.value.DoubleValue
2.269

@<SCITEGIC>MOL_PROPERTY
Valence
SciTegic.value.DoubleValue
5.467

@<SCITEGIC>MOL_PROPERTY
Coulomb
SciTegic.value.DoubleValue
46.392

@<SCITEGIC>MOL_PROPERTY
VdW
SciTegic.value.DoubleValue
0.629

@<SCITEGIC>MOL_PROPERTY
VdW6
SciTegic.value.DoubleValue
-8.780

@<SCITEGIC>MOL_PROPERTY
VdW12
SciTegic.value.DoubleValue
9.409

@<SCITEGIC>MOL_PROPERTY
Bond
SciTegic.value.DoubleValue
0.279

@<SCITEGIC>MOL_PROPERTY
Angle
SciTegic.value.DoubleValue
1.629

@<SCITEGIC>MOL_PROPERTY
Pdih
SciTegic.value.DoubleValue
3.559

@<SCITEGIC>MOL_PROPERTY
Idih
SciTegic.value.DoubleValue
0.000

@<SCITEGIC>MOL_PROPERTY
Tether
SciTegic.value.DoubleValue
0.000

@<TRIPOS>MOLECULE
guest-s14_vm2.mol2 : vm2 ligand conformer 169
          26          25           1
SMALL
USER_CHARGES
 
@<TRIPOS>ATOM
       1    C1      18.429606   19.348794   20.648127 C.3        1 MOL1        -0.2400
       2    H1      18.892102   19.690805   19.713082 H          1 MOL1         0.0971
       3    H2      17.567589   18.721087   20.387558 H          1 MOL1         0.0971
       4    H3      18.055008   20.229177   21.186429 H          1 MOL1         0.0971
       5    C2      19.437624   18.559651   21.509739 C.3        1 MOL1        -0.1385
       6    H4      19.769730   17.668655   20.958877 H          1 MOL1         0.0960
       7    H5      18.929289   18.200764   22.412859 H          1 MOL1         0.0960
       8    C3      20.663670   19.423933   21.887262 C.3        1 MOL1        -0.1409
       9    H6      21.136864   19.784354   20.963465 H          1 MOL1         0.0960
      10    H7      20.345118   20.324878   22.426049 H          1 MOL1         0.0960
      11    C4      21.730504   18.660610   22.711514 C.3        1 MOL1        -0.1409
      12    H8      22.592602   19.323715   22.867193 H          1 MOL1         0.0960
      13    H9      22.106782   17.823065   22.108061 H          1 MOL1         0.0960
      14    C5      21.270365   18.109457   24.088548 C.3        1 MOL1        -0.1409
      15    H10     20.488880   17.350471   23.959460 H          1 MOL1         0.0960
      16    H11     22.124007   17.571628   24.523656 H          1 MOL1         0.0960
      17    C6      20.826749   19.193313   25.107431 C.3        1 MOL1        -0.1450
      18    H12     21.459609   20.083730   24.996664 H          1 MOL1         0.0960
      19    H13     21.006656   18.822474   26.125273 H          1 MOL1         0.0960
      20    C7      19.343441   19.603761   25.000693 C.3        1 MOL1         0.0172
      21    H14     19.155576   20.450610   25.666289 H          1 MOL1         0.0934
      22    H15     19.108559   19.916059   23.981473 H          1 MOL1         0.0934
      23    N1      18.379041   18.499481   25.387686 N.4        1 MOL1        -0.5956
      24    H16     17.402285   18.803553   25.312325 H          1 MOL1         0.3624
      25    H17     18.522321   18.193471   26.355606 H          1 MOL1         0.3624
      26    H18     18.485705   17.673869   24.791116 H          1 MOL1         0.3624
@<TRIPOS>BOND
    1     1     2    1
    2     1     3    1
    3     1     4    1
    4     1     5    1
    5     5     6    1
    6     5     7    1
    7     5     8    1
    8     8     9    1
    9     8    10    1
   10     8    11    1
   11    11    12    1
   12    11    13    1
   13    11    14    1
   14    14    15    1
   15    14    16    1
   16    14    17    1
   17    17    18    1
   18    17    19    1
   19    17    20    1
   20    20    21    1
   21    20    22    1
   22    20    23    1
   23    23    24    1
   24    23    25    1
   25    23    26    1
@<TRIPOS>SUBSTRUCTURE
       1 MOL1            1 RESIDUE      1      MOL     
@<SCITEGIC>MOL_PROPERTY
VM2 Rank
SciTegic.value.IntegerValue
169

@<SCITEGIC>MOL_PROPERTY
Conf_Id
SciTegic.value.IntegerValue
702

@<SCITEGIC>MOL_PROPERTY
Probability
SciTegic.value.DoubleValue
0.00

@<SCITEGIC>MOL_PROPERTY
Sum Probability
SciTegic.value.DoubleValue
99.95

@<SCITEGIC>MOL_PROPERTY
Delta G
SciTegic.value.DoubleValue
4.495

@<SCITEGIC>MOL_PROPERTY
G
SciTegic.value.DoubleValue
52.757

@<SCITEGIC>MOL_PROPERTY
E
SciTegic.value.DoubleValue
19.304

@<SCITEGIC>MOL_PROPERTY
-TS
SciTegic.value.DoubleValue
33.452

@<SCITEGIC>MOL_PROPERTY
U+W
SciTegic.value.DoubleValue
-2.157

@<SCITEGIC>MOL_PROPERTY
U
SciTegic.value.DoubleValue
52.359

@<SCITEGIC>MOL_PROPERTY
W
SciTegic.value.DoubleValue
-54.516

@<SCITEGIC>MOL_PROPERTY
W(PB)
SciTegic.value.DoubleValue
-56.739

@<SCITEGIC>MOL_PROPERTY
W(SA)
SciTegic.value.DoubleValue
2.223

@<SCITEGIC>MOL_PROPERTY
Valence
SciTegic.value.DoubleValue
5.321

@<SCITEGIC>MOL_PROPERTY
Coulomb
SciTegic.value.DoubleValue
46.894

@<SCITEGIC>MOL_PROPERTY
VdW
SciTegic.value.DoubleValue
0.144

@<SCITEGIC>MOL_PROPERTY
VdW6
SciTegic.value.DoubleValue
-9.549

@<SCITEGIC>MOL_PROPERTY
VdW12
SciTegic.value.DoubleValue
9.694

@<SCITEGIC>MOL_PROPERTY
Bond
SciTegic.value.DoubleValue
0.274

@<SCITEGIC>MOL_PROPERTY
Angle
SciTegic.value.DoubleValue
1.814

@<SCITEGIC>MOL_PROPERTY
Pdih
SciTegic.value.DoubleValue
3.233

@<SCITEGIC>MOL_PROPERTY
Idih
SciTegic.value.DoubleValue
0.000

@<SCITEGIC>MOL_PROPERTY
Tether
SciTegic.value.DoubleValue
0.000

@<TRIPOS>MOLECULE
guest-s14_vm2.mol2 : vm2 ligand conformer 170
          26          25           1
SMALL
USER_CHARGES
 
@<TRIPOS>ATOM
       1    C1      20.176471   19.194711   19.714422 C.3        1 MOL1        -0.2400
       2    H1      19.185434   18.725749   19.749913 H          1 MOL1         0.0971
       3    H2      20.041574   20.283375   19.674255 H          1 MOL1         0.0971
       4    H3      20.655404   18.881238   18.777789 H          1 MOL1         0.0971
       5    C2      21.042933   18.786086   20.927407 C.3        1 MOL1        -0.1385
       6    H4      21.133684   17.691511   20.965021 H          1 MOL1         0.0960
       7    H5      22.060778   19.173538   20.780151 H          1 MOL1         0.0960
       8    C3      20.503025   19.313147   22.279028 C.3        1 MOL1        -0.1409
       9    H6      21.247027   19.085948   23.049793 H          1 MOL1         0.0960
      10    H7      20.426581   20.408324   22.237815 H          1 MOL1         0.0960
      11    C4      19.129246   18.709650   22.669795 C.3        1 MOL1        -0.1409
      12    H8      19.174061   17.612246   22.646034 H          1 MOL1         0.0960
      13    H9      18.393470   19.000218   21.908686 H          1 MOL1         0.0960
      14    C5      18.597866   19.190172   24.045787 C.3        1 MOL1        -0.1409
      15    H10     18.877116   20.237781   24.220154 H          1 MOL1         0.0960
      16    H11     17.499918   19.185037   24.001593 H          1 MOL1         0.0960
      17    C6      19.012004   18.302276   25.249543 C.3        1 MOL1        -0.1450
      18    H12     18.668537   17.274117   25.074436 H          1 MOL1         0.0960
      19    H13     18.481535   18.648242   26.146610 H          1 MOL1         0.0960
      20    C7      20.522165   18.272348   25.552241 C.3        1 MOL1         0.0172
      21    H14     20.707408   17.606191   26.399231 H          1 MOL1         0.0934
      22    H15     21.065442   17.878374   24.690312 H          1 MOL1         0.0934
      23    N1      21.097291   19.630610   25.902777 N.4        1 MOL1        -0.5956
      24    H16     22.102475   19.579825   26.100730 H          1 MOL1         0.3624
      25    H17     20.648366   20.028951   26.733906 H          1 MOL1         0.3624
      26    H18     20.971048   20.301945   25.139308 H          1 MOL1         0.3624
@<TRIPOS>BOND
    1     1     2    1
    2     1     3    1
    3     1     4    1
    4     1     5    1
    5     5     6    1
    6     5     7    1
    7     5     8    1
    8     8     9    1
    9     8    10    1
   10     8    11    1
   11    11    12    1
   12    11    13    1
   13    11    14    1
   14    14    15    1
   15    14    16    1
   16    14    17    1
   17    17    18    1
   18    17    19    1
   19    17    20    1
   20    20    21    1
   21    20    22    1
   22    20    23    1
   23    23    24    1
   24    23    25    1
   25    23    26    1
@<TRIPOS>SUBSTRUCTURE
       1 MOL1            1 RESIDUE      1      MOL     
@<SCITEGIC>MOL_PROPERTY
VM2 Rank
SciTegic.value.IntegerValue
170

@<SCITEGIC>MOL_PROPERTY
Conf_Id
SciTegic.value.IntegerValue
1120

@<SCITEGIC>MOL_PROPERTY
Probability
SciTegic.value.DoubleValue
0.00

@<SCITEGIC>MOL_PROPERTY
Sum Probability
SciTegic.value.DoubleValue
99.95

@<SCITEGIC>MOL_PROPERTY
Delta G
SciTegic.value.DoubleValue
4.498

@<SCITEGIC>MOL_PROPERTY
G
SciTegic.value.DoubleValue
52.759

@<SCITEGIC>MOL_PROPERTY
E
SciTegic.value.DoubleValue
19.769

@<SCITEGIC>MOL_PROPERTY
-TS
SciTegic.value.DoubleValue
32.990

@<SCITEGIC>MOL_PROPERTY
U+W
SciTegic.value.DoubleValue
-1.693

@<SCITEGIC>MOL_PROPERTY
U
SciTegic.value.DoubleValue
52.488

@<SCITEGIC>MOL_PROPERTY
W
SciTegic.value.DoubleValue
-54.181

@<SCITEGIC>MOL_PROPERTY
W(PB)
SciTegic.value.DoubleValue
-56.435

@<SCITEGIC>MOL_PROPERTY
W(SA)
SciTegic.value.DoubleValue
2.255

@<SCITEGIC>MOL_PROPERTY
Valence
SciTegic.value.DoubleValue
5.467

@<SCITEGIC>MOL_PROPERTY
Coulomb
SciTegic.value.DoubleValue
46.392

@<SCITEGIC>MOL_PROPERTY
VdW
SciTegic.value.DoubleValue
0.629

@<SCITEGIC>MOL_PROPERTY
VdW6
SciTegic.value.DoubleValue
-8.780

@<SCITEGIC>MOL_PROPERTY
VdW12
SciTegic.value.DoubleValue
9.409

@<SCITEGIC>MOL_PROPERTY
Bond
SciTegic.value.DoubleValue
0.279

@<SCITEGIC>MOL_PROPERTY
Angle
SciTegic.value.DoubleValue
1.629

@<SCITEGIC>MOL_PROPERTY
Pdih
SciTegic.value.DoubleValue
3.559

@<SCITEGIC>MOL_PROPERTY
Idih
SciTegic.value.DoubleValue
0.000

@<SCITEGIC>MOL_PROPERTY
Tether
SciTegic.value.DoubleValue
0.000

@<TRIPOS>MOLECULE
guest-s14_vm2.mol2 : vm2 ligand conformer 171
          26          25           1
SMALL
USER_CHARGES
 
@<TRIPOS>ATOM
       1    C1      20.509141   20.384199   20.945002 C.3        1 MOL1        -0.2400
       2    H1      19.759137   20.766612   21.644835 H          1 MOL1         0.0971
       3    H2      21.503361   20.596648   21.358785 H          1 MOL1         0.0971
       4    H3      20.408121   20.955145   20.012970 H          1 MOL1         0.0971
       5    C2      20.333765   18.872712   20.670950 C.3        1 MOL1        -0.1385
       6    H4      21.053197   18.588955   19.890059 H          1 MOL1         0.0960
       7    H5      19.338429   18.675527   20.249259 H          1 MOL1         0.0960
       8    C3      20.581850   17.973138   21.909883 C.3        1 MOL1        -0.1409
       9    H6      20.988785   17.018188   21.549630 H          1 MOL1         0.0960
      10    H7      21.369139   18.399970   22.544860 H          1 MOL1         0.0960
      11    C4      19.315550   17.640687   22.744786 C.3        1 MOL1        -0.1409
      12    H8      19.577432   16.871662   23.483809 H          1 MOL1         0.0960
      13    H9      18.572093   17.169248   22.087486 H          1 MOL1         0.0960
      14    C5      18.644915   18.832730   23.475887 C.3        1 MOL1        -0.1409
      15    H10     18.235806   19.533866   22.738013 H          1 MOL1         0.0960
      16    H11     17.775191   18.454554   24.030735 H          1 MOL1         0.0960
      17    C6      19.567767   19.591920   24.461792 C.3        1 MOL1        -0.1450
      18    H12     18.997299   20.408665   24.923469 H          1 MOL1         0.0960
      19    H13     20.396537   20.062592   23.918985 H          1 MOL1         0.0960
      20    C7      20.129166   18.681039   25.569105 C.3        1 MOL1         0.0172
      21    H14     19.304604   18.219759   26.119222 H          1 MOL1         0.0934
      22    H15     20.732540   17.886604   25.122199 H          1 MOL1         0.0934
      23    N1      20.998848   19.422574   26.563596 N.4        1 MOL1        -0.5956
      24    H16     20.482031   20.168307   27.040986 H          1 MOL1         0.3624
      25    H17     21.809634   19.858179   26.112098 H          1 MOL1         0.3624
      26    H18     21.361993   18.797962   27.291802 H          1 MOL1         0.3624
@<TRIPOS>BOND
    1     1     2    1
    2     1     3    1
    3     1     4    1
    4     1     5    1
    5     5     6    1
    6     5     7    1
    7     5     8    1
    8     8     9    1
    9     8    10    1
   10     8    11    1
   11    11    12    1
   12    11    13    1
   13    11    14    1
   14    14    15    1
   15    14    16    1
   16    14    17    1
   17    17    18    1
   18    17    19    1
   19    17    20    1
   20    20    21    1
   21    20    22    1
   22    20    23    1
   23    23    24    1
   24    23    25    1
   25    23    26    1
@<TRIPOS>SUBSTRUCTURE
       1 MOL1            1 RESIDUE      1      MOL     
@<SCITEGIC>MOL_PROPERTY
VM2 Rank
SciTegic.value.IntegerValue
171

@<SCITEGIC>MOL_PROPERTY
Conf_Id
SciTegic.value.IntegerValue
863

@<SCITEGIC>MOL_PROPERTY
Probability
SciTegic.value.DoubleValue
0.00

@<SCITEGIC>MOL_PROPERTY
Sum Probability
SciTegic.value.DoubleValue
99.96

@<SCITEGIC>MOL_PROPERTY
Delta G
SciTegic.value.DoubleValue
4.504

@<SCITEGIC>MOL_PROPERTY
G
SciTegic.value.DoubleValue
52.765

@<SCITEGIC>MOL_PROPERTY
E
SciTegic.value.DoubleValue
19.444

@<SCITEGIC>MOL_PROPERTY
-TS
SciTegic.value.DoubleValue
33.321

@<SCITEGIC>MOL_PROPERTY
U+W
SciTegic.value.DoubleValue
-2.017

@<SCITEGIC>MOL_PROPERTY
U
SciTegic.value.DoubleValue
52.152

@<SCITEGIC>MOL_PROPERTY
W
SciTegic.value.DoubleValue
-54.170

@<SCITEGIC>MOL_PROPERTY
W(PB)
SciTegic.value.DoubleValue
-56.395

@<SCITEGIC>MOL_PROPERTY
W(SA)
SciTegic.value.DoubleValue
2.226

@<SCITEGIC>MOL_PROPERTY
Valence
SciTegic.value.DoubleValue
5.986

@<SCITEGIC>MOL_PROPERTY
Coulomb
SciTegic.value.DoubleValue
45.781

@<SCITEGIC>MOL_PROPERTY
VdW
SciTegic.value.DoubleValue
0.386

@<SCITEGIC>MOL_PROPERTY
VdW6
SciTegic.value.DoubleValue
-9.287

@<SCITEGIC>MOL_PROPERTY
VdW12
SciTegic.value.DoubleValue
9.673

@<SCITEGIC>MOL_PROPERTY
Bond
SciTegic.value.DoubleValue
0.289

@<SCITEGIC>MOL_PROPERTY
Angle
SciTegic.value.DoubleValue
2.079

@<SCITEGIC>MOL_PROPERTY
Pdih
SciTegic.value.DoubleValue
3.618

@<SCITEGIC>MOL_PROPERTY
Idih
SciTegic.value.DoubleValue
0.000

@<SCITEGIC>MOL_PROPERTY
Tether
SciTegic.value.DoubleValue
0.000

@<TRIPOS>MOLECULE
guest-s14_vm2.mol2 : vm2 ligand conformer 172
          26          25           1
SMALL
USER_CHARGES
 
@<TRIPOS>ATOM
       1    C1      18.962796   20.102203   21.087091 C.3        1 MOL1        -0.2400
       2    H1      18.089497   20.246797   20.438021 H          1 MOL1         0.0971
       3    H2      18.594494   19.990717   22.112195 H          1 MOL1         0.0971
       4    H3      19.567202   21.017256   21.039827 H          1 MOL1         0.0971
       5    C2      19.780316   18.874024   20.623872 C.3        1 MOL1        -0.1385
       6    H4      20.046591   19.027088   19.568619 H          1 MOL1         0.0960
       7    H5      19.156802   17.969568   20.649098 H          1 MOL1         0.0960
       8    C3      21.086587   18.650813   21.429639 C.3        1 MOL1        -0.1409
       9    H6      21.835360   18.232738   20.742700 H          1 MOL1         0.0960
      10    H7      21.504251   19.611098   21.759059 H          1 MOL1         0.0960
      11    C4      20.961067   17.663579   22.621818 C.3        1 MOL1        -0.1409
      12    H8      21.960856   17.500857   23.047392 H          1 MOL1         0.0960
      13    H9      20.640555   16.685724   22.236840 H          1 MOL1         0.0960
      14    C5      20.001063   18.084549   23.762166 C.3        1 MOL1        -0.1409
      15    H10     18.976848   18.167348   23.377663 H          1 MOL1         0.0960
      16    H11     19.977337   17.272056   24.500268 H          1 MOL1         0.0960
      17    C6      20.419812   19.399050   24.467619 C.3        1 MOL1        -0.1450
      18    H12     20.454299   20.219555   23.740828 H          1 MOL1         0.0960
      19    H13     21.434913   19.299462   24.874163 H          1 MOL1         0.0960
      20    C7      19.450768   19.801853   25.595752 C.3        1 MOL1         0.0172
      21    H14     19.744733   20.776427   25.994915 H          1 MOL1         0.0934
      22    H15     18.436773   19.888909   25.196243 H          1 MOL1         0.0934
      23    N1      19.418592   18.822929   26.753043 N.4        1 MOL1        -0.5956
      24    H16     18.775251   19.127552   27.491661 H          1 MOL1         0.3624
      25    H17     20.341649   18.714866   27.185758 H          1 MOL1         0.3624
      26    H18     19.112989   17.891698   26.454322 H          1 MOL1         0.3624
@<TRIPOS>BOND
    1     1     2    1
    2     1     3    1
    3     1     4    1
    4     1     5    1
    5     5     6    1
    6     5     7    1
    7     5     8    1
    8     8     9    1
    9     8    10    1
   10     8    11    1
   11    11    12    1
   12    11    13    1
   13    11    14    1
   14    14    15    1
   15    14    16    1
   16    14    17    1
   17    17    18    1
   18    17    19    1
   19    17    20    1
   20    20    21    1
   21    20    22    1
   22    20    23    1
   23    23    24    1
   24    23    25    1
   25    23    26    1
@<TRIPOS>SUBSTRUCTURE
       1 MOL1            1 RESIDUE      1      MOL     
@<SCITEGIC>MOL_PROPERTY
VM2 Rank
SciTegic.value.IntegerValue
172

@<SCITEGIC>MOL_PROPERTY
Conf_Id
SciTegic.value.IntegerValue
541

@<SCITEGIC>MOL_PROPERTY
Probability
SciTegic.value.DoubleValue
0.00

@<SCITEGIC>MOL_PROPERTY
Sum Probability
SciTegic.value.DoubleValue
99.96

@<SCITEGIC>MOL_PROPERTY
Delta G
SciTegic.value.DoubleValue
4.512

@<SCITEGIC>MOL_PROPERTY
G
SciTegic.value.DoubleValue
52.774

@<SCITEGIC>MOL_PROPERTY
E
SciTegic.value.DoubleValue
19.498

@<SCITEGIC>MOL_PROPERTY
-TS
SciTegic.value.DoubleValue
33.275

@<SCITEGIC>MOL_PROPERTY
U+W
SciTegic.value.DoubleValue
-1.963

@<SCITEGIC>MOL_PROPERTY
U
SciTegic.value.DoubleValue
51.929

@<SCITEGIC>MOL_PROPERTY
W
SciTegic.value.DoubleValue
-53.892

@<SCITEGIC>MOL_PROPERTY
W(PB)
SciTegic.value.DoubleValue
-56.114

@<SCITEGIC>MOL_PROPERTY
W(SA)
SciTegic.value.DoubleValue
2.222

@<SCITEGIC>MOL_PROPERTY
Valence
SciTegic.value.DoubleValue
5.867

@<SCITEGIC>MOL_PROPERTY
Coulomb
SciTegic.value.DoubleValue
45.498

@<SCITEGIC>MOL_PROPERTY
VdW
SciTegic.value.DoubleValue
0.563

@<SCITEGIC>MOL_PROPERTY
VdW6
SciTegic.value.DoubleValue
-9.057

@<SCITEGIC>MOL_PROPERTY
VdW12
SciTegic.value.DoubleValue
9.621

@<SCITEGIC>MOL_PROPERTY
Bond
SciTegic.value.DoubleValue
0.287

@<SCITEGIC>MOL_PROPERTY
Angle
SciTegic.value.DoubleValue
1.896

@<SCITEGIC>MOL_PROPERTY
Pdih
SciTegic.value.DoubleValue
3.685

@<SCITEGIC>MOL_PROPERTY
Idih
SciTegic.value.DoubleValue
0.000

@<SCITEGIC>MOL_PROPERTY
Tether
SciTegic.value.DoubleValue
0.000

@<TRIPOS>MOLECULE
guest-s14_vm2.mol2 : vm2 ligand conformer 173
          26          25           1
SMALL
USER_CHARGES
 
@<TRIPOS>ATOM
       1    C1      18.706290   18.789924   20.607419 C.3        1 MOL1        -0.2400
       2    H1      18.437909   18.122712   21.435156 H          1 MOL1         0.0971
       3    H2      17.803175   19.344435   20.321598 H          1 MOL1         0.0971
       4    H3      19.003157   18.169094   19.752224 H          1 MOL1         0.0971
       5    C2      19.838926   19.765402   21.001477 C.3        1 MOL1        -0.1385
       6    H4      19.523777   20.397379   21.841405 H          1 MOL1         0.0960
       7    H5      20.014355   20.453297   20.162630 H          1 MOL1         0.0960
       8    C3      21.171760   19.052785   21.337187 C.3        1 MOL1        -0.1409
       9    H6      21.500584   18.491784   20.451573 H          1 MOL1         0.0960
      10    H7      21.945248   19.813708   21.509847 H          1 MOL1         0.0960
      11    C4      21.140681   18.085199   22.551146 C.3        1 MOL1        -0.1409
      12    H8      22.126878   17.603711   22.605291 H          1 MOL1         0.0960
      13    H9      20.429467   17.266617   22.379190 H          1 MOL1         0.0960
      14    C5      20.870850   18.765338   23.919314 C.3        1 MOL1        -0.1409
      15    H10     21.468730   18.245218   24.679477 H          1 MOL1         0.0960
      16    H11     21.234810   19.801909   23.903615 H          1 MOL1         0.0960
      17    C6      19.383578   18.724435   24.353052 C.3        1 MOL1        -0.1450
      18    H12     19.043334   17.682931   24.425080 H          1 MOL1         0.0960
      19    H13     18.754223   19.203413   23.595645 H          1 MOL1         0.0960
      20    C7      19.137938   19.436868   25.697109 C.3        1 MOL1         0.0172
      21    H14     19.485142   20.471678   25.633787 H          1 MOL1         0.0934
      22    H15     18.065443   19.449667   25.909563 H          1 MOL1         0.0934
      23    N1      19.830977   18.779050   26.874297 N.4        1 MOL1        -0.5956
      24    H16     19.635698   19.269691   27.753729 H          1 MOL1         0.3624
      25    H17     20.848845   18.767058   26.757292 H          1 MOL1         0.3624
      26    H18     19.528546   17.807597   26.999885 H          1 MOL1         0.3624
@<TRIPOS>BOND
    1     1     2    1
    2     1     3    1
    3     1     4    1
    4     1     5    1
    5     5     6    1
    6     5     7    1
    7     5     8    1
    8     8     9    1
    9     8    10    1
   10     8    11    1
   11    11    12    1
   12    11    13    1
   13    11    14    1
   14    14    15    1
   15    14    16    1
   16    14    17    1
   17    17    18    1
   18    17    19    1
   19    17    20    1
   20    20    21    1
   21    20    22    1
   22    20    23    1
   23    23    24    1
   24    23    25    1
   25    23    26    1
@<TRIPOS>SUBSTRUCTURE
       1 MOL1            1 RESIDUE      1      MOL     
@<SCITEGIC>MOL_PROPERTY
VM2 Rank
SciTegic.value.IntegerValue
173

@<SCITEGIC>MOL_PROPERTY
Conf_Id
SciTegic.value.IntegerValue
1260

@<SCITEGIC>MOL_PROPERTY
Probability
SciTegic.value.DoubleValue
0.00

@<SCITEGIC>MOL_PROPERTY
Sum Probability
SciTegic.value.DoubleValue
99.96

@<SCITEGIC>MOL_PROPERTY
Delta G
SciTegic.value.DoubleValue
4.518

@<SCITEGIC>MOL_PROPERTY
G
SciTegic.value.DoubleValue
52.780

@<SCITEGIC>MOL_PROPERTY
E
SciTegic.value.DoubleValue
19.515

@<SCITEGIC>MOL_PROPERTY
-TS
SciTegic.value.DoubleValue
33.265

@<SCITEGIC>MOL_PROPERTY
U+W
SciTegic.value.DoubleValue
-1.947

@<SCITEGIC>MOL_PROPERTY
U
SciTegic.value.DoubleValue
51.906

@<SCITEGIC>MOL_PROPERTY
W
SciTegic.value.DoubleValue
-53.853

@<SCITEGIC>MOL_PROPERTY
W(PB)
SciTegic.value.DoubleValue
-56.077

@<SCITEGIC>MOL_PROPERTY
W(SA)
SciTegic.value.DoubleValue
2.224

@<SCITEGIC>MOL_PROPERTY
Valence
SciTegic.value.DoubleValue
5.914

@<SCITEGIC>MOL_PROPERTY
Coulomb
SciTegic.value.DoubleValue
45.360

@<SCITEGIC>MOL_PROPERTY
VdW
SciTegic.value.DoubleValue
0.633

@<SCITEGIC>MOL_PROPERTY
VdW6
SciTegic.value.DoubleValue
-8.890

@<SCITEGIC>MOL_PROPERTY
VdW12
SciTegic.value.DoubleValue
9.523

@<SCITEGIC>MOL_PROPERTY
Bond
SciTegic.value.DoubleValue
0.284

@<SCITEGIC>MOL_PROPERTY
Angle
SciTegic.value.DoubleValue
1.759

@<SCITEGIC>MOL_PROPERTY
Pdih
SciTegic.value.DoubleValue
3.871

@<SCITEGIC>MOL_PROPERTY
Idih
SciTegic.value.DoubleValue
0.000

@<SCITEGIC>MOL_PROPERTY
Tether
SciTegic.value.DoubleValue
0.000

@<TRIPOS>MOLECULE
guest-s14_vm2.mol2 : vm2 ligand conformer 174
          26          25           1
SMALL
USER_CHARGES
 
@<TRIPOS>ATOM
       1    C1      19.707293   20.474428   20.991419 C.3        1 MOL1        -0.2400
       2    H1      18.720262   20.277558   21.427290 H          1 MOL1         0.0971
       3    H2      20.335174   20.960960   21.748970 H          1 MOL1         0.0971
       4    H3      19.564654   21.184461   20.166576 H          1 MOL1         0.0971
       5    C2      20.361674   19.174102   20.476329 C.3        1 MOL1        -0.1385
       6    H4      21.254666   19.437460   19.892410 H          1 MOL1         0.0960
       7    H5      19.677831   18.673726   19.776557 H          1 MOL1         0.0960
       8    C3      20.780481   18.184269   21.593222 C.3        1 MOL1        -0.1409
       9    H6      21.280278   17.334523   21.108075 H          1 MOL1         0.0960
      10    H7      21.543128   18.646382   22.231785 H          1 MOL1         0.0960
      11    C4      19.604471   17.627440   22.441699 C.3        1 MOL1        -0.1409
      12    H8      19.822311   16.583538   22.706293 H          1 MOL1         0.0960
      13    H9      18.696553   17.589120   21.824269 H          1 MOL1         0.0960
      14    C5      19.308274   18.408487   23.748860 C.3        1 MOL1        -0.1409
      15    H10     19.161554   19.471876   23.530188 H          1 MOL1         0.0960
      16    H11     18.355457   18.045830   24.158735 H          1 MOL1         0.0960
      17    C6      20.407092   18.236929   24.828099 C.3        1 MOL1        -0.1450
      18    H12     21.359771   18.656515   24.482607 H          1 MOL1         0.0960
      19    H13     20.581144   17.166984   25.003002 H          1 MOL1         0.0960
      20    C7      20.025543   18.892773   26.169105 C.3        1 MOL1         0.0172
      21    H14     19.076321   18.481727   26.523221 H          1 MOL1         0.0934
      22    H15     20.793533   18.668243   26.914301 H          1 MOL1         0.0934
      23    N1      19.886172   20.400571   26.092267 N.4        1 MOL1        -0.5956
      24    H16     19.152846   20.680697   25.433821 H          1 MOL1         0.3624
      25    H17     20.756340   20.848009   25.786470 H          1 MOL1         0.3624
      26    H18     19.644022   20.806995   27.002486 H          1 MOL1         0.3624
@<TRIPOS>BOND
    1     1     2    1
    2     1     3    1
    3     1     4    1
    4     1     5    1
    5     5     6    1
    6     5     7    1
    7     5     8    1
    8     8     9    1
    9     8    10    1
   10     8    11    1
   11    11    12    1
   12    11    13    1
   13    11    14    1
   14    14    15    1
   15    14    16    1
   16    14    17    1
   17    17    18    1
   18    17    19    1
   19    17    20    1
   20    20    21    1
   21    20    22    1
   22    20    23    1
   23    23    24    1
   24    23    25    1
   25    23    26    1
@<TRIPOS>SUBSTRUCTURE
       1 MOL1            1 RESIDUE      1      MOL     
@<SCITEGIC>MOL_PROPERTY
VM2 Rank
SciTegic.value.IntegerValue
174

@<SCITEGIC>MOL_PROPERTY
Conf_Id
SciTegic.value.IntegerValue
504

@<SCITEGIC>MOL_PROPERTY
Probability
SciTegic.value.DoubleValue
0.00

@<SCITEGIC>MOL_PROPERTY
Sum Probability
SciTegic.value.DoubleValue
99.97

@<SCITEGIC>MOL_PROPERTY
Delta G
SciTegic.value.DoubleValue
4.523

@<SCITEGIC>MOL_PROPERTY
G
SciTegic.value.DoubleValue
52.785

@<SCITEGIC>MOL_PROPERTY
E
SciTegic.value.DoubleValue
19.969

@<SCITEGIC>MOL_PROPERTY
-TS
SciTegic.value.DoubleValue
32.816

@<SCITEGIC>MOL_PROPERTY
U+W
SciTegic.value.DoubleValue
-1.493

@<SCITEGIC>MOL_PROPERTY
U
SciTegic.value.DoubleValue
52.644

@<SCITEGIC>MOL_PROPERTY
W
SciTegic.value.DoubleValue
-54.137

@<SCITEGIC>MOL_PROPERTY
W(PB)
SciTegic.value.DoubleValue
-56.384

@<SCITEGIC>MOL_PROPERTY
W(SA)
SciTegic.value.DoubleValue
2.247

@<SCITEGIC>MOL_PROPERTY
Valence
SciTegic.value.DoubleValue
5.947

@<SCITEGIC>MOL_PROPERTY
Coulomb
SciTegic.value.DoubleValue
45.853

@<SCITEGIC>MOL_PROPERTY
VdW
SciTegic.value.DoubleValue
0.845

@<SCITEGIC>MOL_PROPERTY
VdW6
SciTegic.value.DoubleValue
-8.493

@<SCITEGIC>MOL_PROPERTY
VdW12
SciTegic.value.DoubleValue
9.339

@<SCITEGIC>MOL_PROPERTY
Bond
SciTegic.value.DoubleValue
0.292

@<SCITEGIC>MOL_PROPERTY
Angle
SciTegic.value.DoubleValue
1.527

@<SCITEGIC>MOL_PROPERTY
Pdih
SciTegic.value.DoubleValue
4.127

@<SCITEGIC>MOL_PROPERTY
Idih
SciTegic.value.DoubleValue
0.000

@<SCITEGIC>MOL_PROPERTY
Tether
SciTegic.value.DoubleValue
0.000

@<TRIPOS>MOLECULE
guest-s14_vm2.mol2 : vm2 ligand conformer 175
          26          25           1
SMALL
USER_CHARGES
 
@<TRIPOS>ATOM
       1    C1      20.363331   20.625043   20.712672 C.3        1 MOL1        -0.2400
       2    H1      19.676260   21.299216   21.240490 H          1 MOL1         0.0971
       3    H2      21.290120   21.177973   20.511884 H          1 MOL1         0.0971
       4    H3      19.911308   20.363405   19.747060 H          1 MOL1         0.0971
       5    C2      20.653089   19.361874   21.550330 C.3        1 MOL1        -0.1385
       6    H4      21.140116   19.659951   22.486697 H          1 MOL1         0.0960
       7    H5      21.367114   18.722931   21.012240 H          1 MOL1         0.0960
       8    C3      19.360774   18.564045   21.843738 C.3        1 MOL1        -0.1409
       9    H6      18.632869   19.194810   22.368864 H          1 MOL1         0.0960
      10    H7      18.887059   18.299527   20.888313 H          1 MOL1         0.0960
      11    C4      19.605491   17.258110   22.640504 C.3        1 MOL1        -0.1409
      12    H8      20.255555   16.601277   22.046190 H          1 MOL1         0.0960
      13    H9      18.651026   16.722259   22.735462 H          1 MOL1         0.0960
      14    C5      20.228214   17.421620   24.053731 C.3        1 MOL1        -0.1409
      15    H10     20.367458   16.412256   24.464922 H          1 MOL1         0.0960
      16    H11     21.237926   17.844861   23.984510 H          1 MOL1         0.0960
      17    C6      19.358929   18.224465   25.058444 C.3        1 MOL1        -0.1450
      18    H12     19.581833   17.881945   26.077702 H          1 MOL1         0.0960
      19    H13     18.297888   17.996832   24.891120 H          1 MOL1         0.0960
      20    C7      19.568230   19.752124   25.008307 C.3        1 MOL1         0.0172
      21    H14     19.420623   20.122180   23.992050 H          1 MOL1         0.0934
      22    H15     18.832932   20.237543   25.655743 H          1 MOL1         0.0934
      23    N1      20.942941   20.191719   25.473275 N.4        1 MOL1        -0.5956
      24    H16     21.049946   21.211135   25.434148 H          1 MOL1         0.3624
      25    H17     21.687356   19.787137   24.897891 H          1 MOL1         0.3624
      26    H18     21.123063   19.909893   26.442383 H          1 MOL1         0.3624
@<TRIPOS>BOND
    1     1     2    1
    2     1     3    1
    3     1     4    1
    4     1     5    1
    5     5     6    1
    6     5     7    1
    7     5     8    1
    8     8     9    1
    9     8    10    1
   10     8    11    1
   11    11    12    1
   12    11    13    1
   13    11    14    1
   14    14    15    1
   15    14    16    1
   16    14    17    1
   17    17    18    1
   18    17    19    1
   19    17    20    1
   20    20    21    1
   21    20    22    1
   22    20    23    1
   23    23    24    1
   24    23    25    1
   25    23    26    1
@<TRIPOS>SUBSTRUCTURE
       1 MOL1            1 RESIDUE      1      MOL     
@<SCITEGIC>MOL_PROPERTY
VM2 Rank
SciTegic.value.IntegerValue
175

@<SCITEGIC>MOL_PROPERTY
Conf_Id
SciTegic.value.IntegerValue
413

@<SCITEGIC>MOL_PROPERTY
Probability
SciTegic.value.DoubleValue
0.00

@<SCITEGIC>MOL_PROPERTY
Sum Probability
SciTegic.value.DoubleValue
99.97

@<SCITEGIC>MOL_PROPERTY
Delta G
SciTegic.value.DoubleValue
4.533

@<SCITEGIC>MOL_PROPERTY
G
SciTegic.value.DoubleValue
52.795

@<SCITEGIC>MOL_PROPERTY
E
SciTegic.value.DoubleValue
19.343

@<SCITEGIC>MOL_PROPERTY
-TS
SciTegic.value.DoubleValue
33.452

@<SCITEGIC>MOL_PROPERTY
U+W
SciTegic.value.DoubleValue
-2.119

@<SCITEGIC>MOL_PROPERTY
U
SciTegic.value.DoubleValue
52.359

@<SCITEGIC>MOL_PROPERTY
W
SciTegic.value.DoubleValue
-54.478

@<SCITEGIC>MOL_PROPERTY
W(PB)
SciTegic.value.DoubleValue
-56.700

@<SCITEGIC>MOL_PROPERTY
W(SA)
SciTegic.value.DoubleValue
2.222

@<SCITEGIC>MOL_PROPERTY
Valence
SciTegic.value.DoubleValue
5.321

@<SCITEGIC>MOL_PROPERTY
Coulomb
SciTegic.value.DoubleValue
46.894

@<SCITEGIC>MOL_PROPERTY
VdW
SciTegic.value.DoubleValue
0.144

@<SCITEGIC>MOL_PROPERTY
VdW6
SciTegic.value.DoubleValue
-9.549

@<SCITEGIC>MOL_PROPERTY
VdW12
SciTegic.value.DoubleValue
9.693

@<SCITEGIC>MOL_PROPERTY
Bond
SciTegic.value.DoubleValue
0.274

@<SCITEGIC>MOL_PROPERTY
Angle
SciTegic.value.DoubleValue
1.814

@<SCITEGIC>MOL_PROPERTY
Pdih
SciTegic.value.DoubleValue
3.233

@<SCITEGIC>MOL_PROPERTY
Idih
SciTegic.value.DoubleValue
0.000

@<SCITEGIC>MOL_PROPERTY
Tether
SciTegic.value.DoubleValue
0.000

@<TRIPOS>MOLECULE
guest-s14_vm2.mol2 : vm2 ligand conformer 176
          26          25           1
SMALL
USER_CHARGES
 
@<TRIPOS>ATOM
       1    C1      18.808845   18.358472   20.752943 C.3        1 MOL1        -0.2400
       2    H1      18.838426   18.927292   19.814606 H          1 MOL1         0.0971
       3    H2      18.234506   17.440981   20.570953 H          1 MOL1         0.0971
       4    H3      18.259819   18.951993   21.493658 H          1 MOL1         0.0971
       5    C2      20.236516   18.016790   21.237186 C.3        1 MOL1        -0.1385
       6    H4      20.709609   17.360405   20.493568 H          1 MOL1         0.0960
       7    H5      20.195323   17.431374   22.164213 H          1 MOL1         0.0960
       8    C3      21.133571   19.263746   21.430331 C.3        1 MOL1        -0.1409
       9    H6      22.147503   18.931786   21.692656 H          1 MOL1         0.0960
      10    H7      21.230684   19.776734   20.463602 H          1 MOL1         0.0960
      11    C4      20.653386   20.293667   22.488464 C.3        1 MOL1        -0.1409
      12    H8      19.675869   20.709532   22.211107 H          1 MOL1         0.0960
      13    H9      21.349129   21.143262   22.450448 H          1 MOL1         0.0960
      14    C5      20.630095   19.767617   23.947937 C.3        1 MOL1        -0.1409
      15    H10     21.409447   19.005763   24.081005 H          1 MOL1         0.0960
      16    H11     20.899535   20.597391   24.616168 H          1 MOL1         0.0960
      17    C6      19.249003   19.224683   24.394941 C.3        1 MOL1        -0.1450
      18    H12     18.947640   18.366150   23.785376 H          1 MOL1         0.0960
      19    H13     18.487497   19.999971   24.237988 H          1 MOL1         0.0960
      20    C7      19.227137   18.818763   25.880996 C.3        1 MOL1         0.0172
      21    H14     19.525298   19.669578   26.499537 H          1 MOL1         0.0934
      22    H15     18.210885   18.531036   26.163803 H          1 MOL1         0.0934
      23    N1      20.142446   17.655261   26.208203 N.4        1 MOL1        -0.5956
      24    H16     20.097692   17.403864   27.201720 H          1 MOL1         0.3624
      25    H17     21.121441   17.872096   25.997463 H          1 MOL1         0.3624
      26    H18     19.895770   16.815097   25.675244 H          1 MOL1         0.3624
@<TRIPOS>BOND
    1     1     2    1
    2     1     3    1
    3     1     4    1
    4     1     5    1
    5     5     6    1
    6     5     7    1
    7     5     8    1
    8     8     9    1
    9     8    10    1
   10     8    11    1
   11    11    12    1
   12    11    13    1
   13    11    14    1
   14    14    15    1
   15    14    16    1
   16    14    17    1
   17    17    18    1
   18    17    19    1
   19    17    20    1
   20    20    21    1
   21    20    22    1
   22    20    23    1
   23    23    24    1
   24    23    25    1
   25    23    26    1
@<TRIPOS>SUBSTRUCTURE
       1 MOL1            1 RESIDUE      1      MOL     
@<SCITEGIC>MOL_PROPERTY
VM2 Rank
SciTegic.value.IntegerValue
176

@<SCITEGIC>MOL_PROPERTY
Conf_Id
SciTegic.value.IntegerValue
976

@<SCITEGIC>MOL_PROPERTY
Probability
SciTegic.value.DoubleValue
0.00

@<SCITEGIC>MOL_PROPERTY
Sum Probability
SciTegic.value.DoubleValue
99.97

@<SCITEGIC>MOL_PROPERTY
Delta G
SciTegic.value.DoubleValue
4.536

@<SCITEGIC>MOL_PROPERTY
G
SciTegic.value.DoubleValue
52.797

@<SCITEGIC>MOL_PROPERTY
E
SciTegic.value.DoubleValue
19.535

@<SCITEGIC>MOL_PROPERTY
-TS
SciTegic.value.DoubleValue
33.262

@<SCITEGIC>MOL_PROPERTY
U+W
SciTegic.value.DoubleValue
-1.927

@<SCITEGIC>MOL_PROPERTY
U
SciTegic.value.DoubleValue
52.271

@<SCITEGIC>MOL_PROPERTY
W
SciTegic.value.DoubleValue
-54.197

@<SCITEGIC>MOL_PROPERTY
W(PB)
SciTegic.value.DoubleValue
-56.414

@<SCITEGIC>MOL_PROPERTY
W(SA)
SciTegic.value.DoubleValue
2.217

@<SCITEGIC>MOL_PROPERTY
Valence
SciTegic.value.DoubleValue
5.855

@<SCITEGIC>MOL_PROPERTY
Coulomb
SciTegic.value.DoubleValue
45.878

@<SCITEGIC>MOL_PROPERTY
VdW
SciTegic.value.DoubleValue
0.537

@<SCITEGIC>MOL_PROPERTY
VdW6
SciTegic.value.DoubleValue
-9.012

@<SCITEGIC>MOL_PROPERTY
VdW12
SciTegic.value.DoubleValue
9.549

@<SCITEGIC>MOL_PROPERTY
Bond
SciTegic.value.DoubleValue
0.284

@<SCITEGIC>MOL_PROPERTY
Angle
SciTegic.value.DoubleValue
1.819

@<SCITEGIC>MOL_PROPERTY
Pdih
SciTegic.value.DoubleValue
3.752

@<SCITEGIC>MOL_PROPERTY
Idih
SciTegic.value.DoubleValue
0.000

@<SCITEGIC>MOL_PROPERTY
Tether
SciTegic.value.DoubleValue
0.000

@<TRIPOS>MOLECULE
guest-s14_vm2.mol2 : vm2 ligand conformer 177
          26          25           1
SMALL
USER_CHARGES
 
@<TRIPOS>ATOM
       1    C1      21.121970   19.880961   20.830192 C.3        1 MOL1        -0.2400
       2    H1      20.759128   20.597200   21.576990 H          1 MOL1         0.0971
       3    H2      22.198999   20.050450   20.703474 H          1 MOL1         0.0971
       4    H3      20.632065   20.107624   19.874408 H          1 MOL1         0.0971
       5    C2      20.850016   18.420599   21.257819 C.3        1 MOL1        -0.1385
       6    H4      21.360283   18.198350   22.203346 H          1 MOL1         0.0960
       7    H5      21.300596   17.749258   20.513570 H          1 MOL1         0.0960
       8    C3      19.342835   18.085030   21.370548 C.3        1 MOL1        -0.1409
       9    H6      18.878812   18.228645   20.385048 H          1 MOL1         0.0960
      10    H7      19.235441   17.014992   21.595395 H          1 MOL1         0.0960
      11    C4      18.537610   18.901017   22.417799 C.3        1 MOL1        -0.1409
      12    H8      17.485285   18.599969   22.321363 H          1 MOL1         0.0960
      13    H9      18.554316   19.971309   22.173655 H          1 MOL1         0.0960
      14    C5      18.961596   18.669390   23.892220 C.3        1 MOL1        -0.1409
      15    H10     18.062642   18.729961   24.521400 H          1 MOL1         0.0960
      16    H11     19.347432   17.648472   24.012113 H          1 MOL1         0.0960
      17    C6      19.983520   19.708420   24.419566 C.3        1 MOL1        -0.1450
      18    H12     19.579341   20.718996   24.274749 H          1 MOL1         0.0960
      19    H13     20.918656   19.664099   23.851211 H          1 MOL1         0.0960
      20    C7      20.295647   19.522054   25.916713 C.3        1 MOL1         0.0172
      21    H14     20.947029   20.332341   26.255349 H          1 MOL1         0.0934
      22    H15     19.368421   19.565830   26.494394 H          1 MOL1         0.0934
      23    N1      20.987806   18.211529   26.236142 N.4        1 MOL1        -0.5956
      24    H16     21.189927   18.122450   27.237886 H          1 MOL1         0.3624
      25    H17     21.881034   18.122110   25.741252 H          1 MOL1         0.3624
      26    H18     20.412874   17.405173   25.973279 H          1 MOL1         0.3624
@<TRIPOS>BOND
    1     1     2    1
    2     1     3    1
    3     1     4    1
    4     1     5    1
    5     5     6    1
    6     5     7    1
    7     5     8    1
    8     8     9    1
    9     8    10    1
   10     8    11    1
   11    11    12    1
   12    11    13    1
   13    11    14    1
   14    14    15    1
   15    14    16    1
   16    14    17    1
   17    17    18    1
   18    17    19    1
   19    17    20    1
   20    20    21    1
   21    20    22    1
   22    20    23    1
   23    23    24    1
   24    23    25    1
   25    23    26    1
@<TRIPOS>SUBSTRUCTURE
       1 MOL1            1 RESIDUE      1      MOL     
@<SCITEGIC>MOL_PROPERTY
VM2 Rank
SciTegic.value.IntegerValue
177

@<SCITEGIC>MOL_PROPERTY
Conf_Id
SciTegic.value.IntegerValue
974

@<SCITEGIC>MOL_PROPERTY
Probability
SciTegic.value.DoubleValue
0.00

@<SCITEGIC>MOL_PROPERTY
Sum Probability
SciTegic.value.DoubleValue
99.98

@<SCITEGIC>MOL_PROPERTY
Delta G
SciTegic.value.DoubleValue
4.545

@<SCITEGIC>MOL_PROPERTY
G
SciTegic.value.DoubleValue
52.806

@<SCITEGIC>MOL_PROPERTY
E
SciTegic.value.DoubleValue
19.544

@<SCITEGIC>MOL_PROPERTY
-TS
SciTegic.value.DoubleValue
33.262

@<SCITEGIC>MOL_PROPERTY
U+W
SciTegic.value.DoubleValue
-1.918

@<SCITEGIC>MOL_PROPERTY
U
SciTegic.value.DoubleValue
52.271

@<SCITEGIC>MOL_PROPERTY
W
SciTegic.value.DoubleValue
-54.189

@<SCITEGIC>MOL_PROPERTY
W(PB)
SciTegic.value.DoubleValue
-56.407

@<SCITEGIC>MOL_PROPERTY
W(SA)
SciTegic.value.DoubleValue
2.218

@<SCITEGIC>MOL_PROPERTY
Valence
SciTegic.value.DoubleValue
5.856

@<SCITEGIC>MOL_PROPERTY
Coulomb
SciTegic.value.DoubleValue
45.879

@<SCITEGIC>MOL_PROPERTY
VdW
SciTegic.value.DoubleValue
0.537

@<SCITEGIC>MOL_PROPERTY
VdW6
SciTegic.value.DoubleValue
-9.012

@<SCITEGIC>MOL_PROPERTY
VdW12
SciTegic.value.DoubleValue
9.549

@<SCITEGIC>MOL_PROPERTY
Bond
SciTegic.value.DoubleValue
0.284

@<SCITEGIC>MOL_PROPERTY
Angle
SciTegic.value.DoubleValue
1.819

@<SCITEGIC>MOL_PROPERTY
Pdih
SciTegic.value.DoubleValue
3.753

@<SCITEGIC>MOL_PROPERTY
Idih
SciTegic.value.DoubleValue
0.000

@<SCITEGIC>MOL_PROPERTY
Tether
SciTegic.value.DoubleValue
0.000

@<TRIPOS>MOLECULE
guest-s14_vm2.mol2 : vm2 ligand conformer 178
          26          25           1
SMALL
USER_CHARGES
 
@<TRIPOS>ATOM
       1    C1      20.036592   20.156677   20.035229 C.3        1 MOL1        -0.2400
       2    H1      21.041539   20.105158   19.596345 H          1 MOL1         0.0971
       3    H2      19.308969   20.136955   19.213537 H          1 MOL1         0.0971
       4    H3      19.937258   21.121037   20.550326 H          1 MOL1         0.0971
       5    C2      19.793769   18.981836   21.006208 C.3        1 MOL1        -0.1385
       6    H4      19.869135   18.033085   20.456826 H          1 MOL1         0.0960
       7    H5      18.768076   19.045413   21.393312 H          1 MOL1         0.0960
       8    C3      20.805931   18.990119   22.175614 C.3        1 MOL1        -0.1409
       9    H6      21.824613   18.994668   21.763814 H          1 MOL1         0.0960
      10    H7      20.703976   19.924638   22.741084 H          1 MOL1         0.0960
      11    C4      20.666433   17.768617   23.121158 C.3        1 MOL1        -0.1409
      12    H8      21.462814   17.796312   23.874874 H          1 MOL1         0.0960
      13    H9      20.853386   16.854517   22.540806 H          1 MOL1         0.0960
      14    C5      19.289984   17.627123   23.824313 C.3        1 MOL1        -0.1409
      15    H10     18.524017   17.408078   23.068638 H          1 MOL1         0.0960
      16    H11     19.318329   16.741077   24.473438 H          1 MOL1         0.0960
      17    C6      18.822547   18.845365   24.664856 C.3        1 MOL1        -0.1450
      18    H12     17.805320   18.633391   25.019810 H          1 MOL1         0.0960
      19    H13     18.735925   19.744122   24.041223 H          1 MOL1         0.0960
      20    C7      19.694100   19.134763   25.904712 C.3        1 MOL1         0.0172
      21    H14     19.119459   19.739102   26.611818 H          1 MOL1         0.0934
      22    H15     19.956907   18.195199   26.398033 H          1 MOL1         0.0934
      23    N1      20.971642   19.894501   25.608911 N.4        1 MOL1        -0.5956
      24    H16     21.560704   19.393169   24.937952 H          1 MOL1         0.3624
      25    H17     21.531043   20.041690   26.456152 H          1 MOL1         0.3624
      26    H18     20.778574   20.820219   25.213440 H          1 MOL1         0.3624
@<TRIPOS>BOND
    1     1     2    1
    2     1     3    1
    3     1     4    1
    4     1     5    1
    5     5     6    1
    6     5     7    1
    7     5     8    1
    8     8     9    1
    9     8    10    1
   10     8    11    1
   11    11    12    1
   12    11    13    1
   13    11    14    1
   14    14    15    1
   15    14    16    1
   16    14    17    1
   17    17    18    1
   18    17    19    1
   19    17    20    1
   20    20    21    1
   21    20    22    1
   22    20    23    1
   23    23    24    1
   24    23    25    1
   25    23    26    1
@<TRIPOS>SUBSTRUCTURE
       1 MOL1            1 RESIDUE      1      MOL     
@<SCITEGIC>MOL_PROPERTY
VM2 Rank
SciTegic.value.IntegerValue
178

@<SCITEGIC>MOL_PROPERTY
Conf_Id
SciTegic.value.IntegerValue
571

@<SCITEGIC>MOL_PROPERTY
Probability
SciTegic.value.DoubleValue
0.00

@<SCITEGIC>MOL_PROPERTY
Sum Probability
SciTegic.value.DoubleValue
99.98

@<SCITEGIC>MOL_PROPERTY
Delta G
SciTegic.value.DoubleValue
4.570

@<SCITEGIC>MOL_PROPERTY
G
SciTegic.value.DoubleValue
52.832

@<SCITEGIC>MOL_PROPERTY
E
SciTegic.value.DoubleValue
19.510

@<SCITEGIC>MOL_PROPERTY
-TS
SciTegic.value.DoubleValue
33.322

@<SCITEGIC>MOL_PROPERTY
U+W
SciTegic.value.DoubleValue
-1.952

@<SCITEGIC>MOL_PROPERTY
U
SciTegic.value.DoubleValue
52.118

@<SCITEGIC>MOL_PROPERTY
W
SciTegic.value.DoubleValue
-54.070

@<SCITEGIC>MOL_PROPERTY
W(PB)
SciTegic.value.DoubleValue
-56.281

@<SCITEGIC>MOL_PROPERTY
W(SA)
SciTegic.value.DoubleValue
2.211

@<SCITEGIC>MOL_PROPERTY
Valence
SciTegic.value.DoubleValue
4.669

@<SCITEGIC>MOL_PROPERTY
Coulomb
SciTegic.value.DoubleValue
47.148

@<SCITEGIC>MOL_PROPERTY
VdW
SciTegic.value.DoubleValue
0.301

@<SCITEGIC>MOL_PROPERTY
VdW6
SciTegic.value.DoubleValue
-9.413

@<SCITEGIC>MOL_PROPERTY
VdW12
SciTegic.value.DoubleValue
9.714

@<SCITEGIC>MOL_PROPERTY
Bond
SciTegic.value.DoubleValue
0.278

@<SCITEGIC>MOL_PROPERTY
Angle
SciTegic.value.DoubleValue
1.801

@<SCITEGIC>MOL_PROPERTY
Pdih
SciTegic.value.DoubleValue
2.590

@<SCITEGIC>MOL_PROPERTY
Idih
SciTegic.value.DoubleValue
0.000

@<SCITEGIC>MOL_PROPERTY
Tether
SciTegic.value.DoubleValue
0.000

@<TRIPOS>MOLECULE
guest-s14_vm2.mol2 : vm2 ligand conformer 179
          26          25           1
SMALL
USER_CHARGES
 
@<TRIPOS>ATOM
       1    C1      19.019192   19.484788   20.001334 C.3        1 MOL1        -0.2400
       2    H1      18.693690   18.554495   19.517811 H          1 MOL1         0.0971
       3    H2      18.147789   19.939054   20.490704 H          1 MOL1         0.0971
       4    H3      19.360275   20.171165   19.215490 H          1 MOL1         0.0971
       5    C2      20.148821   19.216373   21.018145 C.3        1 MOL1        -0.1385
       6    H4      20.473828   20.172084   21.450491 H          1 MOL1         0.0960
       7    H5      21.016825   18.791247   20.495205 H          1 MOL1         0.0960
       8    C3      19.690686   18.253353   22.138305 C.3        1 MOL1        -0.1409
       9    H6      18.845372   18.696803   22.678930 H          1 MOL1         0.0960
      10    H7      19.307029   17.331587   21.679541 H          1 MOL1         0.0960
      11    C4      20.823898   17.872527   23.126427 C.3        1 MOL1        -0.1409
      12    H8      21.617837   17.359332   22.566399 H          1 MOL1         0.0960
      13    H9      20.451663   17.128355   23.841079 H          1 MOL1         0.0960
      14    C5      21.459945   19.060357   23.896860 C.3        1 MOL1        -0.1409
      15    H10     22.232907   18.666201   24.570963 H          1 MOL1         0.0960
      16    H11     21.996281   19.701405   23.184731 H          1 MOL1         0.0960
      17    C6      20.484138   19.942912   24.720278 C.3        1 MOL1        -0.1450
      18    H12     19.721053   20.394756   24.073963 H          1 MOL1         0.0960
      19    H13     21.060546   20.783654   25.128424 H          1 MOL1         0.0960
      20    C7      19.819371   19.217658   25.908844 C.3        1 MOL1         0.0172
      21    H14     20.557087   18.591885   26.418152 H          1 MOL1         0.0934
      22    H15     19.455900   19.961602   26.622898 H          1 MOL1         0.0934
      23    N1      18.634949   18.351032   25.530807 N.4        1 MOL1        -0.5956
      24    H16     18.241254   17.868893   26.346255 H          1 MOL1         0.3624
      25    H17     18.896455   17.633127   24.849086 H          1 MOL1         0.3624
      26    H18     17.878154   18.904255   25.116284 H          1 MOL1         0.3624
@<TRIPOS>BOND
    1     1     2    1
    2     1     3    1
    3     1     4    1
    4     1     5    1
    5     5     6    1
    6     5     7    1
    7     5     8    1
    8     8     9    1
    9     8    10    1
   10     8    11    1
   11    11    12    1
   12    11    13    1
   13    11    14    1
   14    14    15    1
   15    14    16    1
   16    14    17    1
   17    17    18    1
   18    17    19    1
   19    17    20    1
   20    20    21    1
   21    20    22    1
   22    20    23    1
   23    23    24    1
   24    23    25    1
   25    23    26    1
@<TRIPOS>SUBSTRUCTURE
       1 MOL1            1 RESIDUE      1      MOL     
@<SCITEGIC>MOL_PROPERTY
VM2 Rank
SciTegic.value.IntegerValue
179

@<SCITEGIC>MOL_PROPERTY
Conf_Id
SciTegic.value.IntegerValue
543

@<SCITEGIC>MOL_PROPERTY
Probability
SciTegic.value.DoubleValue
0.00

@<SCITEGIC>MOL_PROPERTY
Sum Probability
SciTegic.value.DoubleValue
99.98

@<SCITEGIC>MOL_PROPERTY
Delta G
SciTegic.value.DoubleValue
4.588

@<SCITEGIC>MOL_PROPERTY
G
SciTegic.value.DoubleValue
52.849

@<SCITEGIC>MOL_PROPERTY
E
SciTegic.value.DoubleValue
19.528

@<SCITEGIC>MOL_PROPERTY
-TS
SciTegic.value.DoubleValue
33.322

@<SCITEGIC>MOL_PROPERTY
U+W
SciTegic.value.DoubleValue
-1.934

@<SCITEGIC>MOL_PROPERTY
U
SciTegic.value.DoubleValue
52.118

@<SCITEGIC>MOL_PROPERTY
W
SciTegic.value.DoubleValue
-54.052

@<SCITEGIC>MOL_PROPERTY
W(PB)
SciTegic.value.DoubleValue
-56.271

@<SCITEGIC>MOL_PROPERTY
W(SA)
SciTegic.value.DoubleValue
2.219

@<SCITEGIC>MOL_PROPERTY
Valence
SciTegic.value.DoubleValue
4.669

@<SCITEGIC>MOL_PROPERTY
Coulomb
SciTegic.value.DoubleValue
47.148

@<SCITEGIC>MOL_PROPERTY
VdW
SciTegic.value.DoubleValue
0.301

@<SCITEGIC>MOL_PROPERTY
VdW6
SciTegic.value.DoubleValue
-9.413

@<SCITEGIC>MOL_PROPERTY
VdW12
SciTegic.value.DoubleValue
9.715

@<SCITEGIC>MOL_PROPERTY
Bond
SciTegic.value.DoubleValue
0.278

@<SCITEGIC>MOL_PROPERTY
Angle
SciTegic.value.DoubleValue
1.801

@<SCITEGIC>MOL_PROPERTY
Pdih
SciTegic.value.DoubleValue
2.590

@<SCITEGIC>MOL_PROPERTY
Idih
SciTegic.value.DoubleValue
0.000

@<SCITEGIC>MOL_PROPERTY
Tether
SciTegic.value.DoubleValue
0.000

@<TRIPOS>MOLECULE
guest-s14_vm2.mol2 : vm2 ligand conformer 180
          26          25           1
SMALL
USER_CHARGES
 
@<TRIPOS>ATOM
       1    C1      18.523529   18.582672   21.103316 C.3        1 MOL1        -0.2400
       2    H1      18.240532   19.642704   21.068917 H          1 MOL1         0.0971
       3    H2      17.834082   18.029618   20.452373 H          1 MOL1         0.0971
       4    H3      18.375955   18.212510   22.124331 H          1 MOL1         0.0971
       5    C2      19.982127   18.379354   20.639498 C.3        1 MOL1        -0.1385
       6    H4      20.040641   18.588929   19.562269 H          1 MOL1         0.0960
       7    H5      20.258890   17.322517   20.758720 H          1 MOL1         0.0960
       8    C3      21.016509   19.273842   21.369316 C.3        1 MOL1        -0.1409
       9    H6      21.998366   19.078039   20.916531 H          1 MOL1         0.0960
      10    H7      20.806031   20.333592   21.170297 H          1 MOL1         0.0960
      11    C4      21.132055   19.023632   22.895711 C.3        1 MOL1        -0.1409
      12    H8      22.180559   19.168280   23.190688 H          1 MOL1         0.0960
      13    H9      20.896133   17.974562   23.117621 H          1 MOL1         0.0960
      14    C5      20.257393   19.981032   23.745830 C.3        1 MOL1        -0.1409
      15    H10     20.517551   21.018675   23.495471 H          1 MOL1         0.0960
      16    H11     19.197853   19.868298   23.490471 H          1 MOL1         0.0960
      17    C6      20.449410   19.784871   25.270647 C.3        1 MOL1        -0.1450
      18    H12     19.844920   20.525443   25.810965 H          1 MOL1         0.0960
      19    H13     21.494977   19.993465   25.533560 H          1 MOL1         0.0960
      20    C7      20.085528   18.373101   25.773428 C.3        1 MOL1         0.0172
      21    H14     20.710381   17.629113   25.272834 H          1 MOL1         0.0934
      22    H15     20.278485   18.310039   26.847804 H          1 MOL1         0.0934
      23    N1      18.634449   18.000495   25.543253 N.4        1 MOL1        -0.5956
      24    H16     18.422442   17.060680   25.895639 H          1 MOL1         0.3624
      25    H17     18.396518   18.011236   24.547113 H          1 MOL1         0.3624
      26    H18     17.996483   18.648759   26.016391 H          1 MOL1         0.3624
@<TRIPOS>BOND
    1     1     2    1
    2     1     3    1
    3     1     4    1
    4     1     5    1
    5     5     6    1
    6     5     7    1
    7     5     8    1
    8     8     9    1
    9     8    10    1
   10     8    11    1
   11    11    12    1
   12    11    13    1
   13    11    14    1
   14    14    15    1
   15    14    16    1
   16    14    17    1
   17    17    18    1
   18    17    19    1
   19    17    20    1
   20    20    21    1
   21    20    22    1
   22    20    23    1
   23    23    24    1
   24    23    25    1
   25    23    26    1
@<TRIPOS>SUBSTRUCTURE
       1 MOL1            1 RESIDUE      1      MOL     
@<SCITEGIC>MOL_PROPERTY
VM2 Rank
SciTegic.value.IntegerValue
180

@<SCITEGIC>MOL_PROPERTY
Conf_Id
SciTegic.value.IntegerValue
843

@<SCITEGIC>MOL_PROPERTY
Probability
SciTegic.value.DoubleValue
0.00

@<SCITEGIC>MOL_PROPERTY
Sum Probability
SciTegic.value.DoubleValue
99.99

@<SCITEGIC>MOL_PROPERTY
Delta G
SciTegic.value.DoubleValue
4.795

@<SCITEGIC>MOL_PROPERTY
G
SciTegic.value.DoubleValue
53.056

@<SCITEGIC>MOL_PROPERTY
E
SciTegic.value.DoubleValue
20.140

@<SCITEGIC>MOL_PROPERTY
-TS
SciTegic.value.DoubleValue
32.916

@<SCITEGIC>MOL_PROPERTY
U+W
SciTegic.value.DoubleValue
-1.322

@<SCITEGIC>MOL_PROPERTY
U
SciTegic.value.DoubleValue
52.694

@<SCITEGIC>MOL_PROPERTY
W
SciTegic.value.DoubleValue
-54.016

@<SCITEGIC>MOL_PROPERTY
W(PB)
SciTegic.value.DoubleValue
-56.221

@<SCITEGIC>MOL_PROPERTY
W(SA)
SciTegic.value.DoubleValue
2.206

@<SCITEGIC>MOL_PROPERTY
Valence
SciTegic.value.DoubleValue
5.523

@<SCITEGIC>MOL_PROPERTY
Coulomb
SciTegic.value.DoubleValue
46.642

@<SCITEGIC>MOL_PROPERTY
VdW
SciTegic.value.DoubleValue
0.528

@<SCITEGIC>MOL_PROPERTY
VdW6
SciTegic.value.DoubleValue
-8.872

@<SCITEGIC>MOL_PROPERTY
VdW12
SciTegic.value.DoubleValue
9.400

@<SCITEGIC>MOL_PROPERTY
Bond
SciTegic.value.DoubleValue
0.267

@<SCITEGIC>MOL_PROPERTY
Angle
SciTegic.value.DoubleValue
1.435

@<SCITEGIC>MOL_PROPERTY
Pdih
SciTegic.value.DoubleValue
3.821

@<SCITEGIC>MOL_PROPERTY
Idih
SciTegic.value.DoubleValue
0.000

@<SCITEGIC>MOL_PROPERTY
Tether
SciTegic.value.DoubleValue
0.000

@<TRIPOS>MOLECULE
guest-s14_vm2.mol2 : vm2 ligand conformer 181
          26          25           1
SMALL
USER_CHARGES
 
@<TRIPOS>ATOM
       1    C1      20.303461   20.630503   21.547642 C.3        1 MOL1        -0.2400
       2    H1      20.592091   20.566163   22.601319 H          1 MOL1         0.0971
       3    H2      20.966106   21.363422   21.069523 H          1 MOL1         0.0971
       4    H3      19.280289   21.024796   21.497380 H          1 MOL1         0.0971
       5    C2      20.406354   19.264133   20.831184 C.3        1 MOL1        -0.1385
       6    H4      21.439371   18.891377   20.867958 H          1 MOL1         0.0960
       7    H5      20.182122   19.425848   19.767486 H          1 MOL1         0.0960
       8    C3      19.427066   18.193299   21.378706 C.3        1 MOL1        -0.1409
       9    H6      18.497081   18.663237   21.724473 H          1 MOL1         0.0960
      10    H7      19.129853   17.552007   20.537438 H          1 MOL1         0.0960
      11    C4      20.016936   17.263524   22.473633 C.3        1 MOL1        -0.1409
      12    H8      20.894387   16.745378   22.062889 H          1 MOL1         0.0960
      13    H9      19.283942   16.475163   22.693574 H          1 MOL1         0.0960
      14    C5      20.421206   17.946452   23.803550 C.3        1 MOL1        -0.1409
      15    H10     20.849159   17.181763   24.466484 H          1 MOL1         0.0960
      16    H11     21.227817   18.665646   23.618712 H          1 MOL1         0.0960
      17    C6      19.234154   18.625930   24.531207 C.3        1 MOL1        -0.1450
      18    H12     18.425617   17.895095   24.664537 H          1 MOL1         0.0960
      19    H13     18.821669   19.439859   23.922488 H          1 MOL1         0.0960
      20    C7      19.625862   19.177445   25.915358 C.3        1 MOL1         0.0172
      21    H14     18.734963   19.564746   26.417163 H          1 MOL1         0.0934
      22    H15     20.039481   18.372238   26.528481 H          1 MOL1         0.0934
      23    N1      20.645962   20.297713   25.859721 N.4        1 MOL1        -0.5956
      24    H16     20.878817   20.645424   26.796333 H          1 MOL1         0.3624
      25    H17     20.302684   21.098665   25.320083 H          1 MOL1         0.3624
      26    H18     21.522762   19.990818   25.427488 H          1 MOL1         0.3624
@<TRIPOS>BOND
    1     1     2    1
    2     1     3    1
    3     1     4    1
    4     1     5    1
    5     5     6    1
    6     5     7    1
    7     5     8    1
    8     8     9    1
    9     8    10    1
   10     8    11    1
   11    11    12    1
   12    11    13    1
   13    11    14    1
   14    14    15    1
   15    14    16    1
   16    14    17    1
   17    17    18    1
   18    17    19    1
   19    17    20    1
   20    20    21    1
   21    20    22    1
   22    20    23    1
   23    23    24    1
   24    23    25    1
   25    23    26    1
@<TRIPOS>SUBSTRUCTURE
       1 MOL1            1 RESIDUE      1      MOL     
@<SCITEGIC>MOL_PROPERTY
VM2 Rank
SciTegic.value.IntegerValue
181

@<SCITEGIC>MOL_PROPERTY
Conf_Id
SciTegic.value.IntegerValue
405

@<SCITEGIC>MOL_PROPERTY
Probability
SciTegic.value.DoubleValue
0.00

@<SCITEGIC>MOL_PROPERTY
Sum Probability
SciTegic.value.DoubleValue
99.99

@<SCITEGIC>MOL_PROPERTY
Delta G
SciTegic.value.DoubleValue
4.818

@<SCITEGIC>MOL_PROPERTY
G
SciTegic.value.DoubleValue
53.079

@<SCITEGIC>MOL_PROPERTY
E
SciTegic.value.DoubleValue
19.768

@<SCITEGIC>MOL_PROPERTY
-TS
SciTegic.value.DoubleValue
33.311

@<SCITEGIC>MOL_PROPERTY
U+W
SciTegic.value.DoubleValue
-1.694

@<SCITEGIC>MOL_PROPERTY
U
SciTegic.value.DoubleValue
52.676

@<SCITEGIC>MOL_PROPERTY
W
SciTegic.value.DoubleValue
-54.369

@<SCITEGIC>MOL_PROPERTY
W(PB)
SciTegic.value.DoubleValue
-56.548

@<SCITEGIC>MOL_PROPERTY
W(SA)
SciTegic.value.DoubleValue
2.179

@<SCITEGIC>MOL_PROPERTY
Valence
SciTegic.value.DoubleValue
5.835

@<SCITEGIC>MOL_PROPERTY
Coulomb
SciTegic.value.DoubleValue
46.484

@<SCITEGIC>MOL_PROPERTY
VdW
SciTegic.value.DoubleValue
0.357

@<SCITEGIC>MOL_PROPERTY
VdW6
SciTegic.value.DoubleValue
-9.272

@<SCITEGIC>MOL_PROPERTY
VdW12
SciTegic.value.DoubleValue
9.629

@<SCITEGIC>MOL_PROPERTY
Bond
SciTegic.value.DoubleValue
0.284

@<SCITEGIC>MOL_PROPERTY
Angle
SciTegic.value.DoubleValue
1.857

@<SCITEGIC>MOL_PROPERTY
Pdih
SciTegic.value.DoubleValue
3.694

@<SCITEGIC>MOL_PROPERTY
Idih
SciTegic.value.DoubleValue
0.000

@<SCITEGIC>MOL_PROPERTY
Tether
SciTegic.value.DoubleValue
0.000

@<TRIPOS>MOLECULE
guest-s14_vm2.mol2 : vm2 ligand conformer 182
          26          25           1
SMALL
USER_CHARGES
 
@<TRIPOS>ATOM
       1    C1      18.408878   19.378945   21.484482 C.3        1 MOL1        -0.2400
       2    H1      18.449228   20.475774   21.469978 H          1 MOL1         0.0971
       3    H2      17.498179   19.072663   20.953744 H          1 MOL1         0.0971
       4    H3      18.306079   19.055831   22.525015 H          1 MOL1         0.0971
       5    C2      19.657708   18.769687   20.806179 C.3        1 MOL1        -0.1385
       6    H4      19.646225   19.072128   19.749636 H          1 MOL1         0.0960
       7    H5      19.594372   17.672685   20.806162 H          1 MOL1         0.0960
       8    C3      20.999675   19.232145   21.431262 C.3        1 MOL1        -0.1409
       9    H6      21.744481   19.279186   20.624803 H          1 MOL1         0.0960
      10    H7      20.915653   20.260879   21.805313 H          1 MOL1         0.0960
      11    C4      21.572469   18.291057   22.525593 C.3        1 MOL1        -0.1409
      12    H8      22.573646   18.648244   22.803494 H          1 MOL1         0.0960
      13    H9      21.724416   17.293672   22.090575 H          1 MOL1         0.0960
      14    C5      20.724779   18.146928   23.813674 C.3        1 MOL1        -0.1409
      15    H10     19.756739   17.693807   23.569533 H          1 MOL1         0.0960
      16    H11     21.229307   17.432809   24.479152 H          1 MOL1         0.0960
      17    C6      20.530971   19.482510   24.574546 C.3        1 MOL1        -0.1450
      18    H12     19.972663   20.200114   23.960951 H          1 MOL1         0.0960
      19    H13     21.512871   19.934367   24.767754 H          1 MOL1         0.0960
      20    C7      19.806388   19.296653   25.921362 C.3        1 MOL1         0.0172
      21    H14     20.355988   18.581244   26.539011 H          1 MOL1         0.0934
      22    H15     19.775794   20.252182   26.451966 H          1 MOL1         0.0934
      23    N1      18.380132   18.801076   25.783901 N.4        1 MOL1        -0.5956
      24    H16     17.925855   18.694883   26.697533 H          1 MOL1         0.3624
      25    H17     18.339106   17.887967   25.320934 H          1 MOL1         0.3624
      26    H18     17.803492   19.447920   25.236494 H          1 MOL1         0.3624
@<TRIPOS>BOND
    1     1     2    1
    2     1     3    1
    3     1     4    1
    4     1     5    1
    5     5     6    1
    6     5     7    1
    7     5     8    1
    8     8     9    1
    9     8    10    1
   10     8    11    1
   11    11    12    1
   12    11    13    1
   13    11    14    1
   14    14    15    1
   15    14    16    1
   16    14    17    1
   17    17    18    1
   18    17    19    1
   19    17    20    1
   20    20    21    1
   21    20    22    1
   22    20    23    1
   23    23    24    1
   24    23    25    1
   25    23    26    1
@<TRIPOS>SUBSTRUCTURE
       1 MOL1            1 RESIDUE      1      MOL     
@<SCITEGIC>MOL_PROPERTY
VM2 Rank
SciTegic.value.IntegerValue
182

@<SCITEGIC>MOL_PROPERTY
Conf_Id
SciTegic.value.IntegerValue
403

@<SCITEGIC>MOL_PROPERTY
Probability
SciTegic.value.DoubleValue
0.00

@<SCITEGIC>MOL_PROPERTY
Sum Probability
SciTegic.value.DoubleValue
99.99

@<SCITEGIC>MOL_PROPERTY
Delta G
SciTegic.value.DoubleValue
4.910

@<SCITEGIC>MOL_PROPERTY
G
SciTegic.value.DoubleValue
53.171

@<SCITEGIC>MOL_PROPERTY
E
SciTegic.value.DoubleValue
19.860

@<SCITEGIC>MOL_PROPERTY
-TS
SciTegic.value.DoubleValue
33.311

@<SCITEGIC>MOL_PROPERTY
U+W
SciTegic.value.DoubleValue
-1.602

@<SCITEGIC>MOL_PROPERTY
U
SciTegic.value.DoubleValue
52.676

@<SCITEGIC>MOL_PROPERTY
W
SciTegic.value.DoubleValue
-54.278

@<SCITEGIC>MOL_PROPERTY
W(PB)
SciTegic.value.DoubleValue
-56.460

@<SCITEGIC>MOL_PROPERTY
W(SA)
SciTegic.value.DoubleValue
2.182

@<SCITEGIC>MOL_PROPERTY
Valence
SciTegic.value.DoubleValue
5.835

@<SCITEGIC>MOL_PROPERTY
Coulomb
SciTegic.value.DoubleValue
46.484

@<SCITEGIC>MOL_PROPERTY
VdW
SciTegic.value.DoubleValue
0.357

@<SCITEGIC>MOL_PROPERTY
VdW6
SciTegic.value.DoubleValue
-9.272

@<SCITEGIC>MOL_PROPERTY
VdW12
SciTegic.value.DoubleValue
9.629

@<SCITEGIC>MOL_PROPERTY
Bond
SciTegic.value.DoubleValue
0.284

@<SCITEGIC>MOL_PROPERTY
Angle
SciTegic.value.DoubleValue
1.858

@<SCITEGIC>MOL_PROPERTY
Pdih
SciTegic.value.DoubleValue
3.694

@<SCITEGIC>MOL_PROPERTY
Idih
SciTegic.value.DoubleValue
0.000

@<SCITEGIC>MOL_PROPERTY
Tether
SciTegic.value.DoubleValue
0.000

@<TRIPOS>MOLECULE
guest-s14_vm2.mol2 : vm2 ligand conformer 183
          26          25           1
SMALL
USER_CHARGES
 
@<TRIPOS>ATOM
       1    C1      21.149483   19.451094   20.598053 C.3        1 MOL1        -0.2400
       2    H1      20.591024   19.279237   19.668798 H          1 MOL1         0.0971
       3    H2      21.960328   20.157169   20.377130 H          1 MOL1         0.0971
       4    H3      21.610372   18.503278   20.902762 H          1 MOL1         0.0971
       5    C2      20.228036   20.013344   21.703673 C.3        1 MOL1        -0.1385
       6    H4      19.882742   21.012082   21.402222 H          1 MOL1         0.0960
       7    H5      20.807051   20.159980   22.623323 H          1 MOL1         0.0960
       8    C3      18.988291   19.125324   21.980968 C.3        1 MOL1        -0.1409
       9    H6      18.344661   19.615554   22.721968 H          1 MOL1         0.0960
      10    H7      18.384866   19.073017   21.064355 H          1 MOL1         0.0960
      11    C4      19.301366   17.677730   22.442489 C.3        1 MOL1        -0.1409
      12    H8      19.805286   17.144461   21.625547 H          1 MOL1         0.0960
      13    H9      18.351742   17.145812   22.591567 H          1 MOL1         0.0960
      14    C5      20.159179   17.537861   23.729002 C.3        1 MOL1        -0.1409
      15    H10     20.358260   16.466581   23.870110 H          1 MOL1         0.0960
      16    H11     21.145164   17.997753   23.588126 H          1 MOL1         0.0960
      17    C6      19.480048   18.063301   25.022175 C.3        1 MOL1        -0.1450
      18    H12     19.882240   17.515624   25.884827 H          1 MOL1         0.0960
      19    H13     18.407056   17.832046   24.994409 H          1 MOL1         0.0960
      20    C7      19.670149   19.571896   25.280004 C.3        1 MOL1         0.0172
      21    H14     19.339448   20.148825   24.414553 H          1 MOL1         0.0934
      22    H15     19.061527   19.869800   26.138082 H          1 MOL1         0.0934
      23    N1      21.104448   19.958449   25.584636 N.4        1 MOL1        -0.5956
      24    H16     21.456284   19.479282   26.419913 H          1 MOL1         0.3624
      25    H17     21.199265   20.965313   25.756268 H          1 MOL1         0.3624
      26    H18     21.734858   19.721745   24.812879 H          1 MOL1         0.3624
@<TRIPOS>BOND
    1     1     2    1
    2     1     3    1
    3     1     4    1
    4     1     5    1
    5     5     6    1
    6     5     7    1
    7     5     8    1
    8     8     9    1
    9     8    10    1
   10     8    11    1
   11    11    12    1
   12    11    13    1
   13    11    14    1
   14    14    15    1
   15    14    16    1
   16    14    17    1
   17    17    18    1
   18    17    19    1
   19    17    20    1
   20    20    21    1
   21    20    22    1
   22    20    23    1
   23    23    24    1
   24    23    25    1
   25    23    26    1
@<TRIPOS>SUBSTRUCTURE
       1 MOL1            1 RESIDUE      1      MOL     
@<SCITEGIC>MOL_PROPERTY
VM2 Rank
SciTegic.value.IntegerValue
183

@<SCITEGIC>MOL_PROPERTY
Conf_Id
SciTegic.value.IntegerValue
1322

@<SCITEGIC>MOL_PROPERTY
Probability
SciTegic.value.DoubleValue
0.00

@<SCITEGIC>MOL_PROPERTY
Sum Probability
SciTegic.value.DoubleValue
99.99

@<SCITEGIC>MOL_PROPERTY
Delta G
SciTegic.value.DoubleValue
5.090

@<SCITEGIC>MOL_PROPERTY
G
SciTegic.value.DoubleValue
53.352

@<SCITEGIC>MOL_PROPERTY
E
SciTegic.value.DoubleValue
19.657

@<SCITEGIC>MOL_PROPERTY
-TS
SciTegic.value.DoubleValue
33.695

@<SCITEGIC>MOL_PROPERTY
U+W
SciTegic.value.DoubleValue
-1.805

@<SCITEGIC>MOL_PROPERTY
U
SciTegic.value.DoubleValue
52.878

@<SCITEGIC>MOL_PROPERTY
W
SciTegic.value.DoubleValue
-54.683

@<SCITEGIC>MOL_PROPERTY
W(PB)
SciTegic.value.DoubleValue
-56.875

@<SCITEGIC>MOL_PROPERTY
W(SA)
SciTegic.value.DoubleValue
2.192

@<SCITEGIC>MOL_PROPERTY
Valence
SciTegic.value.DoubleValue
5.780

@<SCITEGIC>MOL_PROPERTY
Coulomb
SciTegic.value.DoubleValue
46.918

@<SCITEGIC>MOL_PROPERTY
VdW
SciTegic.value.DoubleValue
0.181

@<SCITEGIC>MOL_PROPERTY
VdW6
SciTegic.value.DoubleValue
-10.252

@<SCITEGIC>MOL_PROPERTY
VdW12
SciTegic.value.DoubleValue
10.432

@<SCITEGIC>MOL_PROPERTY
Bond
SciTegic.value.DoubleValue
0.312

@<SCITEGIC>MOL_PROPERTY
Angle
SciTegic.value.DoubleValue
2.153

@<SCITEGIC>MOL_PROPERTY
Pdih
SciTegic.value.DoubleValue
3.315

@<SCITEGIC>MOL_PROPERTY
Idih
SciTegic.value.DoubleValue
0.000

@<SCITEGIC>MOL_PROPERTY
Tether
SciTegic.value.DoubleValue
0.000

@<TRIPOS>MOLECULE
guest-s14_vm2.mol2 : vm2 ligand conformer 184
          26          25           1
SMALL
USER_CHARGES
 
@<TRIPOS>ATOM
       1    C1      19.879447   19.138248   19.978520 C.3        1 MOL1        -0.2400
       2    H1      20.853934   19.439022   19.572542 H          1 MOL1         0.0971
       3    H2      19.290950   18.709577   19.157106 H          1 MOL1         0.0971
       4    H3      19.357553   20.039408   20.323555 H          1 MOL1         0.0971
       5    C2      20.046932   18.108990   21.119046 C.3        1 MOL1        -0.1385
       6    H4      20.467989   17.184052   20.700974 H          1 MOL1         0.0960
       7    H5      19.061431   17.836753   21.519887 H          1 MOL1         0.0960
       8    C3      20.972393   18.600439   22.260902 C.3        1 MOL1        -0.1409
       9    H6      21.089240   17.790170   22.991283 H          1 MOL1         0.0960
      10    H7      21.976459   18.775774   21.850758 H          1 MOL1         0.0960
      11    C4      20.498904   19.891745   22.981918 C.3        1 MOL1        -0.1409
      12    H8      20.522691   20.727363   22.269907 H          1 MOL1         0.0960
      13    H9      21.226426   20.163944   23.756017 H          1 MOL1         0.0960
      14    C5      19.079892   19.817634   23.605748 C.3        1 MOL1        -0.1409
      15    H10     18.858170   20.779703   24.087819 H          1 MOL1         0.0960
      16    H11     18.341367   19.719675   22.799036 H          1 MOL1         0.0960
      17    C6      18.844406   18.678755   24.633637 C.3        1 MOL1        -0.1450
      18    H12     19.017156   17.695442   24.178327 H          1 MOL1         0.0960
      19    H13     17.781584   18.694311   24.908983 H          1 MOL1         0.0960
      20    C7      19.661432   18.817382   25.935061 C.3        1 MOL1         0.0172
      21    H14     19.663768   19.861336   26.259651 H          1 MOL1         0.0934
      22    H15     19.187841   18.220238   26.719001 H          1 MOL1         0.0934
      23    N1      21.097594   18.345807   25.826168 N.4        1 MOL1        -0.5956
      24    H16     21.152111   17.348526   25.595805 H          1 MOL1         0.3624
      25    H17     21.608733   18.478217   26.705702 H          1 MOL1         0.3624
      26    H18     21.606757   18.855061   25.098280 H          1 MOL1         0.3624
@<TRIPOS>BOND
    1     1     2    1
    2     1     3    1
    3     1     4    1
    4     1     5    1
    5     5     6    1
    6     5     7    1
    7     5     8    1
    8     8     9    1
    9     8    10    1
   10     8    11    1
   11    11    12    1
   12    11    13    1
   13    11    14    1
   14    14    15    1
   15    14    16    1
   16    14    17    1
   17    17    18    1
   18    17    19    1
   19    17    20    1
   20    20    21    1
   21    20    22    1
   22    20    23    1
   23    23    24    1
   24    23    25    1
   25    23    26    1
@<TRIPOS>SUBSTRUCTURE
       1 MOL1            1 RESIDUE      1      MOL     
@<SCITEGIC>MOL_PROPERTY
VM2 Rank
SciTegic.value.IntegerValue
184

@<SCITEGIC>MOL_PROPERTY
Conf_Id
SciTegic.value.IntegerValue
222

@<SCITEGIC>MOL_PROPERTY
Probability
SciTegic.value.DoubleValue
0.00

@<SCITEGIC>MOL_PROPERTY
Sum Probability
SciTegic.value.DoubleValue
99.99

@<SCITEGIC>MOL_PROPERTY
Delta G
SciTegic.value.DoubleValue
5.212

@<SCITEGIC>MOL_PROPERTY
G
SciTegic.value.DoubleValue
53.474

@<SCITEGIC>MOL_PROPERTY
E
SciTegic.value.DoubleValue
19.848

@<SCITEGIC>MOL_PROPERTY
-TS
SciTegic.value.DoubleValue
33.626

@<SCITEGIC>MOL_PROPERTY
U+W
SciTegic.value.DoubleValue
-1.614

@<SCITEGIC>MOL_PROPERTY
U
SciTegic.value.DoubleValue
52.542

@<SCITEGIC>MOL_PROPERTY
W
SciTegic.value.DoubleValue
-54.157

@<SCITEGIC>MOL_PROPERTY
W(PB)
SciTegic.value.DoubleValue
-56.334

@<SCITEGIC>MOL_PROPERTY
W(SA)
SciTegic.value.DoubleValue
2.177

@<SCITEGIC>MOL_PROPERTY
Valence
SciTegic.value.DoubleValue
5.103

@<SCITEGIC>MOL_PROPERTY
Coulomb
SciTegic.value.DoubleValue
47.135

@<SCITEGIC>MOL_PROPERTY
VdW
SciTegic.value.DoubleValue
0.304

@<SCITEGIC>MOL_PROPERTY
VdW6
SciTegic.value.DoubleValue
-10.241

@<SCITEGIC>MOL_PROPERTY
VdW12
SciTegic.value.DoubleValue
10.545

@<SCITEGIC>MOL_PROPERTY
Bond
SciTegic.value.DoubleValue
0.320

@<SCITEGIC>MOL_PROPERTY
Angle
SciTegic.value.DoubleValue
2.105

@<SCITEGIC>MOL_PROPERTY
Pdih
SciTegic.value.DoubleValue
2.678

@<SCITEGIC>MOL_PROPERTY
Idih
SciTegic.value.DoubleValue
0.000

@<SCITEGIC>MOL_PROPERTY
Tether
SciTegic.value.DoubleValue
0.000

@<TRIPOS>MOLECULE
guest-s14_vm2.mol2 : vm2 ligand conformer 185
          26          25           1
SMALL
USER_CHARGES
 
@<TRIPOS>ATOM
       1    C1      19.809782   18.505909   19.827088 C.3        1 MOL1        -0.2400
       2    H1      20.067608   19.503551   19.448593 H          1 MOL1         0.0971
       3    H2      19.950904   17.789414   19.007549 H          1 MOL1         0.0971
       4    H3      18.744347   18.501300   20.088208 H          1 MOL1         0.0971
       5    C2      20.693499   18.124659   21.036373 C.3        1 MOL1        -0.1385
       6    H4      21.732537   18.018796   20.694217 H          1 MOL1         0.0960
       7    H5      20.393420   17.138126   21.415955 H          1 MOL1         0.0960
       8    C3      20.653035   19.164295   22.182491 C.3        1 MOL1        -0.1409
       9    H6      21.399619   18.874200   22.931699 H          1 MOL1         0.0960
      10    H7      20.970105   20.143851   21.798998 H          1 MOL1         0.0960
      11    C4      19.258643   19.295175   22.846949 C.3        1 MOL1        -0.1409
      12    H8      18.894272   18.312966   23.171534 H          1 MOL1         0.0960
      13    H9      18.536568   19.644212   22.097302 H          1 MOL1         0.0960
      14    C5      19.225565   20.294857   24.031356 C.3        1 MOL1        -0.1409
      15    H10     19.481479   21.294792   23.654684 H          1 MOL1         0.0960
      16    H11     18.191348   20.369935   24.394837 H          1 MOL1         0.0960
      17    C6      20.150686   19.968613   25.234799 C.3        1 MOL1        -0.1450
      18    H12     20.022583   20.766530   25.978218 H          1 MOL1         0.0960
      19    H13     21.207142   20.008400   24.940955 H          1 MOL1         0.0960
      20    C7      19.840907   18.627618   25.931955 C.3        1 MOL1         0.0172
      21    H14     20.237532   18.653413   26.950517 H          1 MOL1         0.0934
      22    H15     18.758751   18.484571   25.992878 H          1 MOL1         0.0934
      23    N1      20.448883   17.417873   25.249989 N.4        1 MOL1        -0.5956
      24    H16     20.188266   16.544580   25.721095 H          1 MOL1         0.3624
      25    H17     21.473080   17.461110   25.245794 H          1 MOL1         0.3624
      26    H18     20.143673   17.343512   24.275010 H          1 MOL1         0.3624
@<TRIPOS>BOND
    1     1     2    1
    2     1     3    1
    3     1     4    1
    4     1     5    1
    5     5     6    1
    6     5     7    1
    7     5     8    1
    8     8     9    1
    9     8    10    1
   10     8    11    1
   11    11    12    1
   12    11    13    1
   13    11    14    1
   14    14    15    1
   15    14    16    1
   16    14    17    1
   17    17    18    1
   18    17    19    1
   19    17    20    1
   20    20    21    1
   21    20    22    1
   22    20    23    1
   23    23    24    1
   24    23    25    1
   25    23    26    1
@<TRIPOS>SUBSTRUCTURE
       1 MOL1            1 RESIDUE      1      MOL     
@<SCITEGIC>MOL_PROPERTY
VM2 Rank
SciTegic.value.IntegerValue
185

@<SCITEGIC>MOL_PROPERTY
Conf_Id
SciTegic.value.IntegerValue
464

@<SCITEGIC>MOL_PROPERTY
Probability
SciTegic.value.DoubleValue
0.00

@<SCITEGIC>MOL_PROPERTY
Sum Probability
SciTegic.value.DoubleValue
100.00

@<SCITEGIC>MOL_PROPERTY
Delta G
SciTegic.value.DoubleValue
5.221

@<SCITEGIC>MOL_PROPERTY
G
SciTegic.value.DoubleValue
53.482

@<SCITEGIC>MOL_PROPERTY
E
SciTegic.value.DoubleValue
20.252

@<SCITEGIC>MOL_PROPERTY
-TS
SciTegic.value.DoubleValue
33.230

@<SCITEGIC>MOL_PROPERTY
U+W
SciTegic.value.DoubleValue
-1.210

@<SCITEGIC>MOL_PROPERTY
U
SciTegic.value.DoubleValue
52.436

@<SCITEGIC>MOL_PROPERTY
W
SciTegic.value.DoubleValue
-53.646

@<SCITEGIC>MOL_PROPERTY
W(PB)
SciTegic.value.DoubleValue
-55.879

@<SCITEGIC>MOL_PROPERTY
W(SA)
SciTegic.value.DoubleValue
2.233

@<SCITEGIC>MOL_PROPERTY
Valence
SciTegic.value.DoubleValue
4.797

@<SCITEGIC>MOL_PROPERTY
Coulomb
SciTegic.value.DoubleValue
47.143

@<SCITEGIC>MOL_PROPERTY
VdW
SciTegic.value.DoubleValue
0.497

@<SCITEGIC>MOL_PROPERTY
VdW6
SciTegic.value.DoubleValue
-9.253

@<SCITEGIC>MOL_PROPERTY
VdW12
SciTegic.value.DoubleValue
9.750

@<SCITEGIC>MOL_PROPERTY
Bond
SciTegic.value.DoubleValue
0.276

@<SCITEGIC>MOL_PROPERTY
Angle
SciTegic.value.DoubleValue
1.763

@<SCITEGIC>MOL_PROPERTY
Pdih
SciTegic.value.DoubleValue
2.758

@<SCITEGIC>MOL_PROPERTY
Idih
SciTegic.value.DoubleValue
0.000

@<SCITEGIC>MOL_PROPERTY
Tether
SciTegic.value.DoubleValue
0.000

@<TRIPOS>MOLECULE
guest-s14_vm2.mol2 : vm2 ligand conformer 186
          26          25           1
SMALL
USER_CHARGES
 
@<TRIPOS>ATOM
       1    C1      18.778421   19.955559   21.008393 C.3        1 MOL1        -0.2400
       2    H1      18.806000   20.589767   21.902302 H          1 MOL1         0.0971
       3    H2      19.324695   20.468913   20.206519 H          1 MOL1         0.0971
       4    H3      17.728994   19.872166   20.697519 H          1 MOL1         0.0971
       5    C2      19.374090   18.554453   21.277413 C.3        1 MOL1        -0.1385
       6    H4      19.207195   17.931458   20.387653 H          1 MOL1         0.0960
       7    H5      18.820170   18.068041   22.087540 H          1 MOL1         0.0960
       8    C3      20.895996   18.575049   21.576488 C.3        1 MOL1        -0.1409
       9    H6      21.279000   17.545572   21.593819 H          1 MOL1         0.0960
      10    H7      21.397811   19.059237   20.727366 H          1 MOL1         0.0960
      11    C4      21.324317   19.306367   22.878908 C.3        1 MOL1        -0.1409
      12    H8      20.699037   20.187542   23.063106 H          1 MOL1         0.0960
      13    H9      22.334732   19.705305   22.714174 H          1 MOL1         0.0960
      14    C5      21.394349   18.409678   24.144850 C.3        1 MOL1        -0.1409
      15    H10     22.093616   17.582753   23.959747 H          1 MOL1         0.0960
      16    H11     21.842144   18.993788   24.960037 H          1 MOL1         0.0960
      17    C6      20.046547   17.822301   24.634055 C.3        1 MOL1        -0.1450
      18    H12     20.215350   17.265585   25.565309 H          1 MOL1         0.0960
      19    H13     19.683250   17.082501   23.910719 H          1 MOL1         0.0960
      20    C7      18.952924   18.882204   24.875612 C.3        1 MOL1         0.0172
      21    H14     18.755785   19.426262   23.948518 H          1 MOL1         0.0934
      22    H15     18.027935   18.387210   25.183529 H          1 MOL1         0.0934
      23    N1      19.314356   19.893388   25.945280 N.4        1 MOL1        -0.5956
      24    H16     20.164445   20.411187   25.702291 H          1 MOL1         0.3624
      25    H17     19.481659   19.444248   26.851406 H          1 MOL1         0.3624
      26    H18     18.568887   20.583729   26.085596 H          1 MOL1         0.3624
@<TRIPOS>BOND
    1     1     2    1
    2     1     3    1
    3     1     4    1
    4     1     5    1
    5     5     6    1
    6     5     7    1
    7     5     8    1
    8     8     9    1
    9     8    10    1
   10     8    11    1
   11    11    12    1
   12    11    13    1
   13    11    14    1
   14    14    15    1
   15    14    16    1
   16    14    17    1
   17    17    18    1
   18    17    19    1
   19    17    20    1
   20    20    21    1
   21    20    22    1
   22    20    23    1
   23    23    24    1
   24    23    25    1
   25    23    26    1
@<TRIPOS>SUBSTRUCTURE
       1 MOL1            1 RESIDUE      1      MOL     
@<SCITEGIC>MOL_PROPERTY
VM2 Rank
SciTegic.value.IntegerValue
186

@<SCITEGIC>MOL_PROPERTY
Conf_Id
SciTegic.value.IntegerValue
1107

@<SCITEGIC>MOL_PROPERTY
Probability
SciTegic.value.DoubleValue
0.00

@<SCITEGIC>MOL_PROPERTY
Sum Probability
SciTegic.value.DoubleValue
100.00

@<SCITEGIC>MOL_PROPERTY
Delta G
SciTegic.value.DoubleValue
5.323

@<SCITEGIC>MOL_PROPERTY
G
SciTegic.value.DoubleValue
53.585

@<SCITEGIC>MOL_PROPERTY
E
SciTegic.value.DoubleValue
20.001

@<SCITEGIC>MOL_PROPERTY
-TS
SciTegic.value.DoubleValue
33.583

@<SCITEGIC>MOL_PROPERTY
U+W
SciTegic.value.DoubleValue
-1.461

@<SCITEGIC>MOL_PROPERTY
U
SciTegic.value.DoubleValue
52.809

@<SCITEGIC>MOL_PROPERTY
W
SciTegic.value.DoubleValue
-54.269

@<SCITEGIC>MOL_PROPERTY
W(PB)
SciTegic.value.DoubleValue
-56.453

@<SCITEGIC>MOL_PROPERTY
W(SA)
SciTegic.value.DoubleValue
2.184

@<SCITEGIC>MOL_PROPERTY
Valence
SciTegic.value.DoubleValue
6.265

@<SCITEGIC>MOL_PROPERTY
Coulomb
SciTegic.value.DoubleValue
46.221

@<SCITEGIC>MOL_PROPERTY
VdW
SciTegic.value.DoubleValue
0.323

@<SCITEGIC>MOL_PROPERTY
VdW6
SciTegic.value.DoubleValue
-10.155

@<SCITEGIC>MOL_PROPERTY
VdW12
SciTegic.value.DoubleValue
10.478

@<SCITEGIC>MOL_PROPERTY
Bond
SciTegic.value.DoubleValue
0.329

@<SCITEGIC>MOL_PROPERTY
Angle
SciTegic.value.DoubleValue
2.314

@<SCITEGIC>MOL_PROPERTY
Pdih
SciTegic.value.DoubleValue
3.622

@<SCITEGIC>MOL_PROPERTY
Idih
SciTegic.value.DoubleValue
0.000

@<SCITEGIC>MOL_PROPERTY
Tether
SciTegic.value.DoubleValue
0.000

@<TRIPOS>MOLECULE
guest-s14_vm2.mol2 : vm2 ligand conformer 187
          26          25           1
SMALL
USER_CHARGES
 
@<TRIPOS>ATOM
       1    C1      18.361606   18.386053   20.812497 C.3        1 MOL1        -0.2400
       2    H1      17.640019   18.927649   21.437885 H          1 MOL1         0.0971
       3    H2      18.453983   18.919081   19.857218 H          1 MOL1         0.0971
       4    H3      17.947069   17.391109   20.604553 H          1 MOL1         0.0971
       5    C2      19.729396   18.270029   21.517353 C.3        1 MOL1        -0.1385
       6    H4      20.416219   17.691935   20.883432 H          1 MOL1         0.0960
       7    H5      19.610848   17.696615   22.444301 H          1 MOL1         0.0960
       8    C3      20.343224   19.661402   21.805703 C.3        1 MOL1        -0.1409
       9    H6      20.536343   20.152050   20.841637 H          1 MOL1         0.0960
      10    H7      19.624859   20.306383   22.328937 H          1 MOL1         0.0960
      11    C4      21.674315   19.590696   22.596831 C.3        1 MOL1        -0.1409
      12    H8      22.338037   20.376553   22.210331 H          1 MOL1         0.0960
      13    H9      22.190786   18.643814   22.387288 H          1 MOL1         0.0960
      14    C5      21.554106   19.802364   24.130588 C.3        1 MOL1        -0.1409
      15    H10     22.573441   19.813609   24.540804 H          1 MOL1         0.0960
      16    H11     21.141247   20.798807   24.340813 H          1 MOL1         0.0960
      17    C6      20.745800   18.725261   24.895789 C.3        1 MOL1        -0.1450
      18    H12     21.097086   18.699806   25.935939 H          1 MOL1         0.0960
      19    H13     20.950778   17.731327   24.477245 H          1 MOL1         0.0960
      20    C7      19.230501   19.005660   24.912034 C.3        1 MOL1         0.0172
      21    H14     19.042533   19.974215   25.383089 H          1 MOL1         0.0934
      22    H15     18.842867   19.042017   23.892092 H          1 MOL1         0.0934
      23    N1      18.442051   17.957535   25.670205 N.4        1 MOL1        -0.5956
      24    H16     18.735260   17.895152   26.650647 H          1 MOL1         0.3624
      25    H17     18.554555   17.024113   25.261730 H          1 MOL1         0.3624
      26    H18     17.437320   18.164273   25.672231 H          1 MOL1         0.3624
@<TRIPOS>BOND
    1     1     2    1
    2     1     3    1
    3     1     4    1
    4     1     5    1
    5     5     6    1
    6     5     7    1
    7     5     8    1
    8     8     9    1
    9     8    10    1
   10     8    11    1
   11    11    12    1
   12    11    13    1
   13    11    14    1
   14    14    15    1
   15    14    16    1
   16    14    17    1
   17    17    18    1
   18    17    19    1
   19    17    20    1
   20    20    21    1
   21    20    22    1
   22    20    23    1
   23    23    24    1
   24    23    25    1
   25    23    26    1
@<TRIPOS>SUBSTRUCTURE
       1 MOL1            1 RESIDUE      1      MOL     
@<SCITEGIC>MOL_PROPERTY
VM2 Rank
SciTegic.value.IntegerValue
187

@<SCITEGIC>MOL_PROPERTY
Conf_Id
SciTegic.value.IntegerValue
736

@<SCITEGIC>MOL_PROPERTY
Probability
SciTegic.value.DoubleValue
0.00

@<SCITEGIC>MOL_PROPERTY
Sum Probability
SciTegic.value.DoubleValue
100.00

@<SCITEGIC>MOL_PROPERTY
Delta G
SciTegic.value.DoubleValue
5.823

@<SCITEGIC>MOL_PROPERTY
G
SciTegic.value.DoubleValue
54.085

@<SCITEGIC>MOL_PROPERTY
E
SciTegic.value.DoubleValue
20.802

@<SCITEGIC>MOL_PROPERTY
-TS
SciTegic.value.DoubleValue
33.283

@<SCITEGIC>MOL_PROPERTY
U+W
SciTegic.value.DoubleValue
-0.660

@<SCITEGIC>MOL_PROPERTY
U
SciTegic.value.DoubleValue
53.727

@<SCITEGIC>MOL_PROPERTY
W
SciTegic.value.DoubleValue
-54.387

@<SCITEGIC>MOL_PROPERTY
W(PB)
SciTegic.value.DoubleValue
-56.587

@<SCITEGIC>MOL_PROPERTY
W(SA)
SciTegic.value.DoubleValue
2.200

@<SCITEGIC>MOL_PROPERTY
Valence
SciTegic.value.DoubleValue
7.057

@<SCITEGIC>MOL_PROPERTY
Coulomb
SciTegic.value.DoubleValue
46.464

@<SCITEGIC>MOL_PROPERTY
VdW
SciTegic.value.DoubleValue
0.207

@<SCITEGIC>MOL_PROPERTY
VdW6
SciTegic.value.DoubleValue
-9.122

@<SCITEGIC>MOL_PROPERTY
VdW12
SciTegic.value.DoubleValue
9.329

@<SCITEGIC>MOL_PROPERTY
Bond
SciTegic.value.DoubleValue
0.248

@<SCITEGIC>MOL_PROPERTY
Angle
SciTegic.value.DoubleValue
1.758

@<SCITEGIC>MOL_PROPERTY
Pdih
SciTegic.value.DoubleValue
5.050

@<SCITEGIC>MOL_PROPERTY
Idih
SciTegic.value.DoubleValue
0.000

@<SCITEGIC>MOL_PROPERTY
Tether
SciTegic.value.DoubleValue
0.000

@<TRIPOS>MOLECULE
guest-s14_vm2.mol2 : vm2 ligand conformer 188
          26          25           1
SMALL
USER_CHARGES
 
@<TRIPOS>ATOM
       1    C1      18.512394   18.581632   20.793451 C.3        1 MOL1        -0.2400
       2    H1      18.140037   19.512740   21.237878 H          1 MOL1         0.0971
       3    H2      18.067891   18.495713   19.793402 H          1 MOL1         0.0971
       4    H3      18.146719   17.738451   21.393341 H          1 MOL1         0.0971
       5    C2      20.055254   18.571133   20.698089 C.3        1 MOL1        -0.1385
       6    H4      20.395928   19.430597   20.103891 H          1 MOL1         0.0960
       7    H5      20.368690   17.673490   20.146862 H          1 MOL1         0.0960
       8    C3      20.756094   18.576373   22.077425 C.3        1 MOL1        -0.1409
       9    H6      20.410932   17.712061   22.657823 H          1 MOL1         0.0960
      10    H7      21.833885   18.429072   21.922828 H          1 MOL1         0.0960
      11    C4      20.541317   19.891729   22.868696 C.3        1 MOL1        -0.1409
      12    H8      19.475568   20.075459   23.044904 H          1 MOL1         0.0960
      13    H9      20.886222   20.732468   22.251068 H          1 MOL1         0.0960
      14    C5      21.306585   19.933957   24.215638 C.3        1 MOL1        -0.1409
      15    H10     22.384596   19.875686   24.011378 H          1 MOL1         0.0960
      16    H11     21.144070   20.916890   24.679091 H          1 MOL1         0.0960
      17    C6      20.937248   18.831933   25.244976 C.3        1 MOL1        -0.1450
      18    H12     21.561468   18.984900   26.135313 H          1 MOL1         0.0960
      19    H13     21.203188   17.836860   24.866282 H          1 MOL1         0.0960
      20    C7      19.462474   18.852963   25.698282 C.3        1 MOL1         0.0172
      21    H14     19.376209   18.344956   26.662615 H          1 MOL1         0.0934
      22    H15     19.131634   19.886770   25.828750 H          1 MOL1         0.0934
      23    N1      18.509634   18.159281   24.744443 N.4        1 MOL1        -0.5956
      24    H16     17.535283   18.238093   25.056156 H          1 MOL1         0.3624
      25    H17     18.718038   17.158625   24.664765 H          1 MOL1         0.3624
      26    H18     18.566177   18.558439   23.802280 H          1 MOL1         0.3624
@<TRIPOS>BOND
    1     1     2    1
    2     1     3    1
    3     1     4    1
    4     1     5    1
    5     5     6    1
    6     5     7    1
    7     5     8    1
    8     8     9    1
    9     8    10    1
   10     8    11    1
   11    11    12    1
   12    11    13    1
   13    11    14    1
   14    14    15    1
   15    14    16    1
   16    14    17    1
   17    17    18    1
   18    17    19    1
   19    17    20    1
   20    20    21    1
   21    20    22    1
   22    20    23    1
   23    23    24    1
   24    23    25    1
   25    23    26    1
@<TRIPOS>SUBSTRUCTURE
       1 MOL1            1 RESIDUE      1      MOL     
@<SCITEGIC>MOL_PROPERTY
VM2 Rank
SciTegic.value.IntegerValue
188

@<SCITEGIC>MOL_PROPERTY
Conf_Id
SciTegic.value.IntegerValue
1101

@<SCITEGIC>MOL_PROPERTY
Probability
SciTegic.value.DoubleValue
0.00

@<SCITEGIC>MOL_PROPERTY
Sum Probability
SciTegic.value.DoubleValue
100.00

@<SCITEGIC>MOL_PROPERTY
Delta G
SciTegic.value.DoubleValue
6.011

@<SCITEGIC>MOL_PROPERTY
G
SciTegic.value.DoubleValue
54.273

@<SCITEGIC>MOL_PROPERTY
E
SciTegic.value.DoubleValue
20.896

@<SCITEGIC>MOL_PROPERTY
-TS
SciTegic.value.DoubleValue
33.377

@<SCITEGIC>MOL_PROPERTY
U+W
SciTegic.value.DoubleValue
-0.566

@<SCITEGIC>MOL_PROPERTY
U
SciTegic.value.DoubleValue
52.431

@<SCITEGIC>MOL_PROPERTY
W
SciTegic.value.DoubleValue
-52.997

@<SCITEGIC>MOL_PROPERTY
W(PB)
SciTegic.value.DoubleValue
-55.181

@<SCITEGIC>MOL_PROPERTY
W(SA)
SciTegic.value.DoubleValue
2.184

@<SCITEGIC>MOL_PROPERTY
Valence
SciTegic.value.DoubleValue
4.698

@<SCITEGIC>MOL_PROPERTY
Coulomb
SciTegic.value.DoubleValue
47.457

@<SCITEGIC>MOL_PROPERTY
VdW
SciTegic.value.DoubleValue
0.276

@<SCITEGIC>MOL_PROPERTY
VdW6
SciTegic.value.DoubleValue
-9.682

@<SCITEGIC>MOL_PROPERTY
VdW12
SciTegic.value.DoubleValue
9.958

@<SCITEGIC>MOL_PROPERTY
Bond
SciTegic.value.DoubleValue
0.267

@<SCITEGIC>MOL_PROPERTY
Angle
SciTegic.value.DoubleValue
1.656

@<SCITEGIC>MOL_PROPERTY
Pdih
SciTegic.value.DoubleValue
2.774

@<SCITEGIC>MOL_PROPERTY
Idih
SciTegic.value.DoubleValue
0.000

@<SCITEGIC>MOL_PROPERTY
Tether
SciTegic.value.DoubleValue
0.000

@<TRIPOS>MOLECULE
guest-s14_vm2.mol2 : vm2 ligand conformer 189
          26          25           1
SMALL
USER_CHARGES
 
@<TRIPOS>ATOM
       1    C1      19.229129   19.556313   20.167504 C.3        1 MOL1        -0.2400
       2    H1      19.977164   20.100705   19.576676 H          1 MOL1         0.0971
       3    H2      18.373671   19.349504   19.511520 H          1 MOL1         0.0971
       4    H3      18.879901   20.220323   20.965421 H          1 MOL1         0.0971
       5    C2      19.815816   18.236833   20.721126 C.3        1 MOL1        -0.1385
       6    H4      20.095601   17.607250   19.864827 H          1 MOL1         0.0960
       7    H5      19.045130   17.676678   21.268671 H          1 MOL1         0.0960
       8    C3      21.069263   18.439980   21.611209 C.3        1 MOL1        -0.1409
       9    H6      21.734699   17.578323   21.462354 H          1 MOL1         0.0960
      10    H7      21.639750   19.315297   21.271362 H          1 MOL1         0.0960
      11    C4      20.780047   18.546016   23.130882 C.3        1 MOL1        -0.1409
      12    H8      21.741882   18.591590   23.660003 H          1 MOL1         0.0960
      13    H9      20.281682   17.625032   23.458259 H          1 MOL1         0.0960
      14    C5      19.925382   19.772767   23.530277 C.3        1 MOL1        -0.1409
      15    H10     20.312290   20.660247   23.010931 H          1 MOL1         0.0960
      16    H11     18.893238   19.630924   23.183957 H          1 MOL1         0.0960
      17    C6      19.908637   20.071849   25.051176 C.3        1 MOL1        -0.1450
      18    H12     19.355583   21.008132   25.203936 H          1 MOL1         0.0960
      19    H13     20.927054   20.260785   25.415811 H          1 MOL1         0.0960
      20    C7      19.232695   18.982509   25.909609 C.3        1 MOL1         0.0172
      21    H14     18.937105   19.417518   26.868193 H          1 MOL1         0.0934
      22    H15     18.330364   18.622120   25.408414 H          1 MOL1         0.0934
      23    N1      20.120031   17.792732   26.219215 N.4        1 MOL1        -0.5956
      24    H16     19.633049   17.093987   26.791032 H          1 MOL1         0.3624
      25    H17     20.959420   18.070611   26.738099 H          1 MOL1         0.3624
      26    H18     20.433295   17.320798   25.366485 H          1 MOL1         0.3624
@<TRIPOS>BOND
    1     1     2    1
    2     1     3    1
    3     1     4    1
    4     1     5    1
    5     5     6    1
    6     5     7    1
    7     5     8    1
    8     8     9    1
    9     8    10    1
   10     8    11    1
   11    11    12    1
   12    11    13    1
   13    11    14    1
   14    14    15    1
   15    14    16    1
   16    14    17    1
   17    17    18    1
   18    17    19    1
   19    17    20    1
   20    20    21    1
   21    20    22    1
   22    20    23    1
   23    23    24    1
   24    23    25    1
   25    23    26    1
@<TRIPOS>SUBSTRUCTURE
       1 MOL1            1 RESIDUE      1      MOL     
@<SCITEGIC>MOL_PROPERTY
VM2 Rank
SciTegic.value.IntegerValue
189

@<SCITEGIC>MOL_PROPERTY
Conf_Id
SciTegic.value.IntegerValue
1365

@<SCITEGIC>MOL_PROPERTY
Probability
SciTegic.value.DoubleValue
0.00

@<SCITEGIC>MOL_PROPERTY
Sum Probability
SciTegic.value.DoubleValue
100.00

@<SCITEGIC>MOL_PROPERTY
Delta G
SciTegic.value.DoubleValue
6.033

@<SCITEGIC>MOL_PROPERTY
G
SciTegic.value.DoubleValue
54.294

@<SCITEGIC>MOL_PROPERTY
E
SciTegic.value.DoubleValue
21.435

@<SCITEGIC>MOL_PROPERTY
-TS
SciTegic.value.DoubleValue
32.859

@<SCITEGIC>MOL_PROPERTY
U+W
SciTegic.value.DoubleValue
-0.027

@<SCITEGIC>MOL_PROPERTY
U
SciTegic.value.DoubleValue
53.913

@<SCITEGIC>MOL_PROPERTY
W
SciTegic.value.DoubleValue
-53.940

@<SCITEGIC>MOL_PROPERTY
W(PB)
SciTegic.value.DoubleValue
-56.167

@<SCITEGIC>MOL_PROPERTY
W(SA)
SciTegic.value.DoubleValue
2.227

@<SCITEGIC>MOL_PROPERTY
Valence
SciTegic.value.DoubleValue
6.633

@<SCITEGIC>MOL_PROPERTY
Coulomb
SciTegic.value.DoubleValue
46.628

@<SCITEGIC>MOL_PROPERTY
VdW
SciTegic.value.DoubleValue
0.652

@<SCITEGIC>MOL_PROPERTY
VdW6
SciTegic.value.DoubleValue
-8.843

@<SCITEGIC>MOL_PROPERTY
VdW12
SciTegic.value.DoubleValue
9.495

@<SCITEGIC>MOL_PROPERTY
Bond
SciTegic.value.DoubleValue
0.271

@<SCITEGIC>MOL_PROPERTY
Angle
SciTegic.value.DoubleValue
1.731

@<SCITEGIC>MOL_PROPERTY
Pdih
SciTegic.value.DoubleValue
4.631

@<SCITEGIC>MOL_PROPERTY
Idih
SciTegic.value.DoubleValue
0.000

@<SCITEGIC>MOL_PROPERTY
Tether
SciTegic.value.DoubleValue
0.000

@<TRIPOS>MOLECULE
guest-s14_vm2.mol2 : vm2 ligand conformer 190
          26          25           1
SMALL
USER_CHARGES
 
@<TRIPOS>ATOM
       1    C1      20.071485   18.224659   20.219292 C.3        1 MOL1        -0.2400
       2    H1      19.010829   18.117301   20.478617 H          1 MOL1         0.0971
       3    H2      20.175231   19.078447   19.537202 H          1 MOL1         0.0971
       4    H3      20.370868   17.320428   19.673768 H          1 MOL1         0.0971
       5    C2      20.945637   18.410765   21.479780 C.3        1 MOL1        -0.1385
       6    H4      22.002968   18.385264   21.181017 H          1 MOL1         0.0960
       7    H5      20.804723   17.555492   22.151682 H          1 MOL1         0.0960
       8    C3      20.678828   19.744188   22.225681 C.3        1 MOL1        -0.1409
       9    H6      21.369862   19.825040   23.071707 H          1 MOL1         0.0960
      10    H7      20.948130   20.572334   21.555760 H          1 MOL1         0.0960
      11    C4      19.216238   19.966730   22.701999 C.3        1 MOL1        -0.1409
      12    H8      18.566672   19.999348   21.817423 H          1 MOL1         0.0960
      13    H9      19.132509   20.965007   23.152819 H          1 MOL1         0.0960
      14    C5      18.647017   18.911272   23.689765 C.3        1 MOL1        -0.1409
      15    H10     17.553563   18.915728   23.582287 H          1 MOL1         0.0960
      16    H11     18.954155   17.897576   23.407345 H          1 MOL1         0.0960
      17    C6      18.955366   19.180598   25.187083 C.3        1 MOL1        -0.1450
      18    H12     18.416899   18.443627   25.797577 H          1 MOL1         0.0960
      19    H13     18.547199   20.160243   25.468834 H          1 MOL1         0.0960
      20    C7      20.446274   19.141257   25.572797 C.3        1 MOL1         0.0172
      21    H14     20.985542   19.933660   25.049632 H          1 MOL1         0.0934
      22    H15     20.545610   19.321523   26.646615 H          1 MOL1         0.0934
      23    N1      21.120156   17.819530   25.264602 N.4        1 MOL1        -0.5956
      24    H16     21.083964   17.608250   24.263234 H          1 MOL1         0.3624
      25    H17     20.671366   17.041265   25.758610 H          1 MOL1         0.3624
      26    H18     22.107854   17.821704   25.541727 H          1 MOL1         0.3624
@<TRIPOS>BOND
    1     1     2    1
    2     1     3    1
    3     1     4    1
    4     1     5    1
    5     5     6    1
    6     5     7    1
    7     5     8    1
    8     8     9    1
    9     8    10    1
   10     8    11    1
   11    11    12    1
   12    11    13    1
   13    11    14    1
   14    14    15    1
   15    14    16    1
   16    14    17    1
   17    17    18    1
   18    17    19    1
   19    17    20    1
   20    20    21    1
   21    20    22    1
   22    20    23    1
   23    23    24    1
   24    23    25    1
   25    23    26    1
@<TRIPOS>SUBSTRUCTURE
       1 MOL1            1 RESIDUE      1      MOL     
@<SCITEGIC>MOL_PROPERTY
VM2 Rank
SciTegic.value.IntegerValue
190

@<SCITEGIC>MOL_PROPERTY
Conf_Id
SciTegic.value.IntegerValue
798

@<SCITEGIC>MOL_PROPERTY
Probability
SciTegic.value.DoubleValue
0.00

@<SCITEGIC>MOL_PROPERTY
Sum Probability
SciTegic.value.DoubleValue
100.00

@<SCITEGIC>MOL_PROPERTY
Delta G
SciTegic.value.DoubleValue
6.093

@<SCITEGIC>MOL_PROPERTY
G
SciTegic.value.DoubleValue
54.355

@<SCITEGIC>MOL_PROPERTY
E
SciTegic.value.DoubleValue
20.888

@<SCITEGIC>MOL_PROPERTY
-TS
SciTegic.value.DoubleValue
33.466

@<SCITEGIC>MOL_PROPERTY
U+W
SciTegic.value.DoubleValue
-0.573

@<SCITEGIC>MOL_PROPERTY
U
SciTegic.value.DoubleValue
53.513

@<SCITEGIC>MOL_PROPERTY
W
SciTegic.value.DoubleValue
-54.087

@<SCITEGIC>MOL_PROPERTY
W(PB)
SciTegic.value.DoubleValue
-56.257

@<SCITEGIC>MOL_PROPERTY
W(SA)
SciTegic.value.DoubleValue
2.170

@<SCITEGIC>MOL_PROPERTY
Valence
SciTegic.value.DoubleValue
6.042

@<SCITEGIC>MOL_PROPERTY
Coulomb
SciTegic.value.DoubleValue
47.147

@<SCITEGIC>MOL_PROPERTY
VdW
SciTegic.value.DoubleValue
0.324

@<SCITEGIC>MOL_PROPERTY
VdW6
SciTegic.value.DoubleValue
-10.118

@<SCITEGIC>MOL_PROPERTY
VdW12
SciTegic.value.DoubleValue
10.442

@<SCITEGIC>MOL_PROPERTY
Bond
SciTegic.value.DoubleValue
0.350

@<SCITEGIC>MOL_PROPERTY
Angle
SciTegic.value.DoubleValue
2.482

@<SCITEGIC>MOL_PROPERTY
Pdih
SciTegic.value.DoubleValue
3.210

@<SCITEGIC>MOL_PROPERTY
Idih
SciTegic.value.DoubleValue
0.000

@<SCITEGIC>MOL_PROPERTY
Tether
SciTegic.value.DoubleValue
0.000

@<TRIPOS>MOLECULE
guest-s14_vm2.mol2 : vm2 ligand conformer 191
          26          25           1
SMALL
USER_CHARGES
 
@<TRIPOS>ATOM
       1    C1      19.062583   18.610859   20.331262 C.3        1 MOL1        -0.2400
       2    H1      18.696196   19.643874   20.272615 H          1 MOL1         0.0971
       3    H2      18.756564   18.093649   19.412730 H          1 MOL1         0.0971
       4    H3      18.564862   18.110341   21.171128 H          1 MOL1         0.0971
       5    C2      20.598716   18.572940   20.485707 C.3        1 MOL1        -0.1385
       6    H4      21.055452   18.949844   19.559922 H          1 MOL1         0.0960
       7    H5      20.928928   17.529442   20.584646 H          1 MOL1         0.0960
       8    C3      21.141356   19.403774   21.676639 C.3        1 MOL1        -0.1409
       9    H6      22.238126   19.341981   21.649772 H          1 MOL1         0.0960
      10    H7      20.901427   20.466891   21.537057 H          1 MOL1         0.0960
      11    C4      20.663074   18.921845   23.071052 C.3        1 MOL1        -0.1409
      12    H8      21.492609   19.059289   23.775867 H          1 MOL1         0.0960
      13    H9      20.449312   17.844598   23.041534 H          1 MOL1         0.0960
      14    C5      19.435699   19.705804   23.600877 C.3        1 MOL1        -0.1409
      15    H10     19.728874   20.745433   23.802134 H          1 MOL1         0.0960
      16    H11     18.665402   19.758450   22.822321 H          1 MOL1         0.0960
      17    C6      18.790316   19.099209   24.872960 C.3        1 MOL1        -0.1450
      18    H12     18.440394   18.077605   24.673679 H          1 MOL1         0.0960
      19    H13     17.891522   19.685300   25.106409 H          1 MOL1         0.0960
      20    C7      19.697160   19.113607   26.121083 C.3        1 MOL1         0.0172
      21    H14     20.247328   20.057154   26.169175 H          1 MOL1         0.0934
      22    H15     19.072600   19.039492   27.015463 H          1 MOL1         0.0934
      23    N1      20.692095   17.970962   26.181420 N.4        1 MOL1        -0.5956
      24    H16     21.323835   17.974479   25.375820 H          1 MOL1         0.3624
      25    H17     20.222551   17.059710   26.194644 H          1 MOL1         0.3624
      26    H18     21.275097   18.018783   27.024158 H          1 MOL1         0.3624
@<TRIPOS>BOND
    1     1     2    1
    2     1     3    1
    3     1     4    1
    4     1     5    1
    5     5     6    1
    6     5     7    1
    7     5     8    1
    8     8     9    1
    9     8    10    1
   10     8    11    1
   11    11    12    1
   12    11    13    1
   13    11    14    1
   14    14    15    1
   15    14    16    1
   16    14    17    1
   17    17    18    1
   18    17    19    1
   19    17    20    1
   20    20    21    1
   21    20    22    1
   22    20    23    1
   23    23    24    1
   24    23    25    1
   25    23    26    1
@<TRIPOS>SUBSTRUCTURE
       1 MOL1            1 RESIDUE      1      MOL     
@<SCITEGIC>MOL_PROPERTY
VM2 Rank
SciTegic.value.IntegerValue
191

@<SCITEGIC>MOL_PROPERTY
Conf_Id
SciTegic.value.IntegerValue
847

@<SCITEGIC>MOL_PROPERTY
Probability
SciTegic.value.DoubleValue
0.00

@<SCITEGIC>MOL_PROPERTY
Sum Probability
SciTegic.value.DoubleValue
100.00

@<SCITEGIC>MOL_PROPERTY
Delta G
SciTegic.value.DoubleValue
6.130

@<SCITEGIC>MOL_PROPERTY
G
SciTegic.value.DoubleValue
54.391

@<SCITEGIC>MOL_PROPERTY
E
SciTegic.value.DoubleValue
21.444

@<SCITEGIC>MOL_PROPERTY
-TS
SciTegic.value.DoubleValue
32.947

@<SCITEGIC>MOL_PROPERTY
U+W
SciTegic.value.DoubleValue
-0.018

@<SCITEGIC>MOL_PROPERTY
U
SciTegic.value.DoubleValue
54.015

@<SCITEGIC>MOL_PROPERTY
W
SciTegic.value.DoubleValue
-54.033

@<SCITEGIC>MOL_PROPERTY
W(PB)
SciTegic.value.DoubleValue
-56.244

@<SCITEGIC>MOL_PROPERTY
W(SA)
SciTegic.value.DoubleValue
2.211

@<SCITEGIC>MOL_PROPERTY
Valence
SciTegic.value.DoubleValue
6.748

@<SCITEGIC>MOL_PROPERTY
Coulomb
SciTegic.value.DoubleValue
46.597

@<SCITEGIC>MOL_PROPERTY
VdW
SciTegic.value.DoubleValue
0.670

@<SCITEGIC>MOL_PROPERTY
VdW6
SciTegic.value.DoubleValue
-8.868

@<SCITEGIC>MOL_PROPERTY
VdW12
SciTegic.value.DoubleValue
9.538

@<SCITEGIC>MOL_PROPERTY
Bond
SciTegic.value.DoubleValue
0.273

@<SCITEGIC>MOL_PROPERTY
Angle
SciTegic.value.DoubleValue
1.645

@<SCITEGIC>MOL_PROPERTY
Pdih
SciTegic.value.DoubleValue
4.830

@<SCITEGIC>MOL_PROPERTY
Idih
SciTegic.value.DoubleValue
0.000

@<SCITEGIC>MOL_PROPERTY
Tether
SciTegic.value.DoubleValue
0.000

@<TRIPOS>MOLECULE
guest-s14_vm2.mol2 : vm2 ligand conformer 192
          26          25           1
SMALL
USER_CHARGES
 
@<TRIPOS>ATOM
       1    C1      18.416399   18.560317   21.357163 C.3        1 MOL1        -0.2400
       2    H1      18.311918   18.950174   22.375125 H          1 MOL1         0.0971
       3    H2      18.030350   19.320070   20.665277 H          1 MOL1         0.0971
       4    H3      17.773123   17.675060   21.271689 H          1 MOL1         0.0971
       5    C2      19.881360   18.199745   21.016550 C.3        1 MOL1        -0.1385
       6    H4      19.900094   17.812931   19.987999 H          1 MOL1         0.0960
       7    H5      20.237205   17.376507   21.650431 H          1 MOL1         0.0960
       8    C3      20.849740   19.406489   21.103533 C.3        1 MOL1        -0.1409
       9    H6      21.614371   19.278210   20.324876 H          1 MOL1         0.0960
      10    H7      20.322390   20.334782   20.844164 H          1 MOL1         0.0960
      11    C4      21.595982   19.577260   22.454699 C.3        1 MOL1        -0.1409
      12    H8      22.322612   20.390999   22.323212 H          1 MOL1         0.0960
      13    H9      22.196199   18.682436   22.669502 H          1 MOL1         0.0960
      14    C5      20.704936   19.932030   23.672335 C.3        1 MOL1        -0.1409
      15    H10     21.265876   20.614955   24.325534 H          1 MOL1         0.0960
      16    H11     19.820144   20.493008   23.342770 H          1 MOL1         0.0960
      17    C6      20.293613   18.699733   24.513111 C.3        1 MOL1        -0.1450
      18    H12     21.193453   18.208451   24.906528 H          1 MOL1         0.0960
      19    H13     19.778525   17.960781   23.889536 H          1 MOL1         0.0960
      20    C7      19.379834   19.100619   25.684274 C.3        1 MOL1         0.0172
      21    H14     19.898511   19.816598   26.327549 H          1 MOL1         0.0934
      22    H15     18.474874   19.577544   25.298246 H          1 MOL1         0.0934
      23    N1      18.959136   17.922806   26.539334 N.4        1 MOL1        -0.5956
      24    H16     18.351578   18.212270   27.313588 H          1 MOL1         0.3624
      25    H17     19.765563   17.445704   26.955549 H          1 MOL1         0.3624
      26    H18     18.440398   17.223360   25.998265 H          1 MOL1         0.3624
@<TRIPOS>BOND
    1     1     2    1
    2     1     3    1
    3     1     4    1
    4     1     5    1
    5     5     6    1
    6     5     7    1
    7     5     8    1
    8     8     9    1
    9     8    10    1
   10     8    11    1
   11    11    12    1
   12    11    13    1
   13    11    14    1
   14    14    15    1
   15    14    16    1
   16    14    17    1
   17    17    18    1
   18    17    19    1
   19    17    20    1
   20    20    21    1
   21    20    22    1
   22    20    23    1
   23    23    24    1
   24    23    25    1
   25    23    26    1
@<TRIPOS>SUBSTRUCTURE
       1 MOL1            1 RESIDUE      1      MOL     
@<SCITEGIC>MOL_PROPERTY
VM2 Rank
SciTegic.value.IntegerValue
192

@<SCITEGIC>MOL_PROPERTY
Conf_Id
SciTegic.value.IntegerValue
499

@<SCITEGIC>MOL_PROPERTY
Probability
SciTegic.value.DoubleValue
0.00

@<SCITEGIC>MOL_PROPERTY
Sum Probability
SciTegic.value.DoubleValue
100.00

@<SCITEGIC>MOL_PROPERTY
Delta G
SciTegic.value.DoubleValue
6.216

@<SCITEGIC>MOL_PROPERTY
G
SciTegic.value.DoubleValue
54.478

@<SCITEGIC>MOL_PROPERTY
E
SciTegic.value.DoubleValue
21.258

@<SCITEGIC>MOL_PROPERTY
-TS
SciTegic.value.DoubleValue
33.220

@<SCITEGIC>MOL_PROPERTY
U+W
SciTegic.value.DoubleValue
-0.204

@<SCITEGIC>MOL_PROPERTY
U
SciTegic.value.DoubleValue
53.883

@<SCITEGIC>MOL_PROPERTY
W
SciTegic.value.DoubleValue
-54.087

@<SCITEGIC>MOL_PROPERTY
W(PB)
SciTegic.value.DoubleValue
-56.325

@<SCITEGIC>MOL_PROPERTY
W(SA)
SciTegic.value.DoubleValue
2.237

@<SCITEGIC>MOL_PROPERTY
Valence
SciTegic.value.DoubleValue
7.744

@<SCITEGIC>MOL_PROPERTY
Coulomb
SciTegic.value.DoubleValue
45.678

@<SCITEGIC>MOL_PROPERTY
VdW
SciTegic.value.DoubleValue
0.461

@<SCITEGIC>MOL_PROPERTY
VdW6
SciTegic.value.DoubleValue
-8.645

@<SCITEGIC>MOL_PROPERTY
VdW12
SciTegic.value.DoubleValue
9.106

@<SCITEGIC>MOL_PROPERTY
Bond
SciTegic.value.DoubleValue
0.266

@<SCITEGIC>MOL_PROPERTY
Angle
SciTegic.value.DoubleValue
1.932

@<SCITEGIC>MOL_PROPERTY
Pdih
SciTegic.value.DoubleValue
5.545

@<SCITEGIC>MOL_PROPERTY
Idih
SciTegic.value.DoubleValue
0.000

@<SCITEGIC>MOL_PROPERTY
Tether
SciTegic.value.DoubleValue
0.000

@<TRIPOS>MOLECULE
guest-s14_vm2.mol2 : vm2 ligand conformer 193
          26          25           1
SMALL
USER_CHARGES
 
@<TRIPOS>ATOM
       1    C1      20.934484   19.105657   19.757180 C.3        1 MOL1        -0.2400
       2    H1      21.931037   19.520475   19.557640 H          1 MOL1         0.0971
       3    H2      20.887850   18.107767   19.301940 H          1 MOL1         0.0971
       4    H3      20.196529   19.745222   19.255577 H          1 MOL1         0.0971
       5    C2      20.667102   19.036485   21.275659 C.3        1 MOL1        -0.1385
       6    H4      20.759760   20.045431   21.699147 H          1 MOL1         0.0960
       7    H5      21.436669   18.413747   21.752489 H          1 MOL1         0.0960
       8    C3      19.265160   18.461363   21.582235 C.3        1 MOL1        -0.1409
       9    H6      18.497388   19.117395   21.149324 H          1 MOL1         0.0960
      10    H7      19.159103   17.492025   21.075827 H          1 MOL1         0.0960
      11    C4      18.978339   18.257802   23.092176 C.3        1 MOL1        -0.1409
      12    H8      19.690197   17.533026   23.504612 H          1 MOL1         0.0960
      13    H9      17.988380   17.789472   23.181739 H          1 MOL1         0.0960
      14    C5      18.971489   19.569573   23.923728 C.3        1 MOL1        -0.1409
      15    H10     18.683366   20.405299   23.271213 H          1 MOL1         0.0960
      16    H11     18.182021   19.513386   24.686072 H          1 MOL1         0.0960
      17    C6      20.317077   19.903734   24.621911 C.3        1 MOL1        -0.1450
      18    H12     20.387828   20.994041   24.731252 H          1 MOL1         0.0960
      19    H13     21.170492   19.605879   24.001149 H          1 MOL1         0.0960
      20    C7      20.454324   19.289267   26.030952 C.3        1 MOL1         0.0172
      21    H14     21.377425   19.649980   26.492757 H          1 MOL1         0.0934
      22    H15     19.616034   19.614118   26.653089 H          1 MOL1         0.0934
      23    N1      20.493025   17.775118   26.057159 N.4        1 MOL1        -0.5956
      24    H16     20.585717   17.413459   27.012644 H          1 MOL1         0.3624
      25    H17     21.282594   17.405581   25.518067 H          1 MOL1         0.3624
      26    H18     19.637095   17.372096   25.663414 H          1 MOL1         0.3624
@<TRIPOS>BOND
    1     1     2    1
    2     1     3    1
    3     1     4    1
    4     1     5    1
    5     5     6    1
    6     5     7    1
    7     5     8    1
    8     8     9    1
    9     8    10    1
   10     8    11    1
   11    11    12    1
   12    11    13    1
   13    11    14    1
   14    14    15    1
   15    14    16    1
   16    14    17    1
   17    17    18    1
   18    17    19    1
   19    17    20    1
   20    20    21    1
   21    20    22    1
   22    20    23    1
   23    23    24    1
   24    23    25    1
   25    23    26    1
@<TRIPOS>SUBSTRUCTURE
       1 MOL1            1 RESIDUE      1      MOL     
@<SCITEGIC>MOL_PROPERTY
VM2 Rank
SciTegic.value.IntegerValue
193

@<SCITEGIC>MOL_PROPERTY
Conf_Id
SciTegic.value.IntegerValue
542

@<SCITEGIC>MOL_PROPERTY
Probability
SciTegic.value.DoubleValue
0.00

@<SCITEGIC>MOL_PROPERTY
Sum Probability
SciTegic.value.DoubleValue
100.00

@<SCITEGIC>MOL_PROPERTY
Delta G
SciTegic.value.DoubleValue
6.230

@<SCITEGIC>MOL_PROPERTY
G
SciTegic.value.DoubleValue
54.491

@<SCITEGIC>MOL_PROPERTY
E
SciTegic.value.DoubleValue
21.518

@<SCITEGIC>MOL_PROPERTY
-TS
SciTegic.value.DoubleValue
32.974

@<SCITEGIC>MOL_PROPERTY
U+W
SciTegic.value.DoubleValue
0.056

@<SCITEGIC>MOL_PROPERTY
U
SciTegic.value.DoubleValue
54.162

@<SCITEGIC>MOL_PROPERTY
W
SciTegic.value.DoubleValue
-54.106

@<SCITEGIC>MOL_PROPERTY
W(PB)
SciTegic.value.DoubleValue
-56.351

@<SCITEGIC>MOL_PROPERTY
W(SA)
SciTegic.value.DoubleValue
2.245

@<SCITEGIC>MOL_PROPERTY
Valence
SciTegic.value.DoubleValue
7.004

@<SCITEGIC>MOL_PROPERTY
Coulomb
SciTegic.value.DoubleValue
46.400

@<SCITEGIC>MOL_PROPERTY
VdW
SciTegic.value.DoubleValue
0.758

@<SCITEGIC>MOL_PROPERTY
VdW6
SciTegic.value.DoubleValue
-8.752

@<SCITEGIC>MOL_PROPERTY
VdW12
SciTegic.value.DoubleValue
9.510

@<SCITEGIC>MOL_PROPERTY
Bond
SciTegic.value.DoubleValue
0.280

@<SCITEGIC>MOL_PROPERTY
Angle
SciTegic.value.DoubleValue
1.396

@<SCITEGIC>MOL_PROPERTY
Pdih
SciTegic.value.DoubleValue
5.328

@<SCITEGIC>MOL_PROPERTY
Idih
SciTegic.value.DoubleValue
0.000

@<SCITEGIC>MOL_PROPERTY
Tether
SciTegic.value.DoubleValue
0.000

@<TRIPOS>MOLECULE
guest-s14_vm2.mol2 : vm2 ligand conformer 194
          26          25           1
SMALL
USER_CHARGES
 
@<TRIPOS>ATOM
       1    C1      20.023226   20.648499   20.708506 C.3        1 MOL1        -0.2400
       2    H1      19.516099   21.291398   21.439697 H          1 MOL1         0.0971
       3    H2      20.870811   21.210982   20.295937 H          1 MOL1         0.0971
       4    H3      19.322545   20.444943   19.888248 H          1 MOL1         0.0971
       5    C2      20.506292   19.337355   21.363312 C.3        1 MOL1        -0.1385
       6    H4      21.235962   19.571167   22.147917 H          1 MOL1         0.0960
       7    H5      21.040751   18.734226   20.616056 H          1 MOL1         0.0960
       8    C3      19.326062   18.517180   21.937614 C.3        1 MOL1        -0.1409
       9    H6      18.695784   19.138641   22.587286 H          1 MOL1         0.0960
      10    H7      18.683037   18.216329   21.098900 H          1 MOL1         0.0960
      11    C4      19.780564   17.241981   22.692164 C.3        1 MOL1        -0.1409
      12    H8      20.745282   16.891716   22.299914 H          1 MOL1         0.0960
      13    H9      19.064507   16.440838   22.462171 H          1 MOL1         0.0960
      14    C5      19.850398   17.368361   24.238154 C.3        1 MOL1        -0.1409
      15    H10     18.854528   17.597346   24.638890 H          1 MOL1         0.0960
      16    H11     20.100902   16.374657   24.634573 H          1 MOL1         0.0960
      17    C6      20.900589   18.371494   24.784636 C.3        1 MOL1        -0.1450
      18    H12     21.821142   18.301853   24.190622 H          1 MOL1         0.0960
      19    H13     21.179401   18.072731   25.803882 H          1 MOL1         0.0960
      20    C7      20.423691   19.838548   24.830881 C.3        1 MOL1         0.0172
      21    H14     21.252026   20.476118   25.151566 H          1 MOL1         0.0934
      22    H15     20.110704   20.165641   23.837602 H          1 MOL1         0.0934
      23    N1      19.270178   20.075581   25.785734 N.4        1 MOL1        -0.5956
      24    H16     18.442725   19.531034   25.524473 H          1 MOL1         0.3624
      25    H17     18.988197   21.061585   25.805243 H          1 MOL1         0.3624
      26    H18     19.513060   19.815007   26.746995 H          1 MOL1         0.3624
@<TRIPOS>BOND
    1     1     2    1
    2     1     3    1
    3     1     4    1
    4     1     5    1
    5     5     6    1
    6     5     7    1
    7     5     8    1
    8     8     9    1
    9     8    10    1
   10     8    11    1
   11    11    12    1
   12    11    13    1
   13    11    14    1
   14    14    15    1
   15    14    16    1
   16    14    17    1
   17    17    18    1
   18    17    19    1
   19    17    20    1
   20    20    21    1
   21    20    22    1
   22    20    23    1
   23    23    24    1
   24    23    25    1
   25    23    26    1
@<TRIPOS>SUBSTRUCTURE
       1 MOL1            1 RESIDUE      1      MOL     
@<SCITEGIC>MOL_PROPERTY
VM2 Rank
SciTegic.value.IntegerValue
194

@<SCITEGIC>MOL_PROPERTY
Conf_Id
SciTegic.value.IntegerValue
1345

@<SCITEGIC>MOL_PROPERTY
Probability
SciTegic.value.DoubleValue
0.00

@<SCITEGIC>MOL_PROPERTY
Sum Probability
SciTegic.value.DoubleValue
100.00

@<SCITEGIC>MOL_PROPERTY
Delta G
SciTegic.value.DoubleValue
6.240

@<SCITEGIC>MOL_PROPERTY
G
SciTegic.value.DoubleValue
54.501

@<SCITEGIC>MOL_PROPERTY
E
SciTegic.value.DoubleValue
21.134

@<SCITEGIC>MOL_PROPERTY
-TS
SciTegic.value.DoubleValue
33.367

@<SCITEGIC>MOL_PROPERTY
U+W
SciTegic.value.DoubleValue
-0.328

@<SCITEGIC>MOL_PROPERTY
U
SciTegic.value.DoubleValue
54.016

@<SCITEGIC>MOL_PROPERTY
W
SciTegic.value.DoubleValue
-54.344

@<SCITEGIC>MOL_PROPERTY
W(PB)
SciTegic.value.DoubleValue
-56.553

@<SCITEGIC>MOL_PROPERTY
W(SA)
SciTegic.value.DoubleValue
2.209

@<SCITEGIC>MOL_PROPERTY
Valence
SciTegic.value.DoubleValue
7.241

@<SCITEGIC>MOL_PROPERTY
Coulomb
SciTegic.value.DoubleValue
46.463

@<SCITEGIC>MOL_PROPERTY
VdW
SciTegic.value.DoubleValue
0.312

@<SCITEGIC>MOL_PROPERTY
VdW6
SciTegic.value.DoubleValue
-9.614

@<SCITEGIC>MOL_PROPERTY
VdW12
SciTegic.value.DoubleValue
9.926

@<SCITEGIC>MOL_PROPERTY
Bond
SciTegic.value.DoubleValue
0.277

@<SCITEGIC>MOL_PROPERTY
Angle
SciTegic.value.DoubleValue
1.893

@<SCITEGIC>MOL_PROPERTY
Pdih
SciTegic.value.DoubleValue
5.071

@<SCITEGIC>MOL_PROPERTY
Idih
SciTegic.value.DoubleValue
0.000

@<SCITEGIC>MOL_PROPERTY
Tether
SciTegic.value.DoubleValue
0.000

@<TRIPOS>MOLECULE
guest-s14_vm2.mol2 : vm2 ligand conformer 195
          26          25           1
SMALL
USER_CHARGES
 
@<TRIPOS>ATOM
       1    C1      19.628269   20.011095   20.205693 C.3        1 MOL1        -0.2400
       2    H1      20.118700   20.499538   19.353757 H          1 MOL1         0.0971
       3    H2      18.566376   19.891648   19.954403 H          1 MOL1         0.0971
       4    H3      19.697497   20.690590   21.062159 H          1 MOL1         0.0971
       5    C2      20.284391   18.640562   20.494006 C.3        1 MOL1        -0.1385
       6    H4      21.361050   18.762918   20.676722 H          1 MOL1         0.0960
       7    H5      20.200268   18.028076   19.585332 H          1 MOL1         0.0960
       8    C3      19.621621   17.874569   21.668011 C.3        1 MOL1        -0.1409
       9    H6      18.557521   18.138179   21.741051 H          1 MOL1         0.0960
      10    H7      19.644298   16.801931   21.430566 H          1 MOL1         0.0960
      11    C4      20.313108   18.061134   23.043421 C.3        1 MOL1        -0.1409
      12    H8      21.349024   17.700517   22.979621 H          1 MOL1         0.0960
      13    H9      19.811026   17.404996   23.762304 H          1 MOL1         0.0960
      14    C5      20.312263   19.520258   23.563516 C.3        1 MOL1        -0.1409
      15    H10     20.942850   20.122290   22.896589 H          1 MOL1         0.0960
      16    H11     19.301539   19.947366   23.506957 H          1 MOL1         0.0960
      17    C6      20.869214   19.672338   25.002466 C.3        1 MOL1        -0.1450
      18    H12     21.287786   20.682775   25.101328 H          1 MOL1         0.0960
      19    H13     21.707221   18.982284   25.168009 H          1 MOL1         0.0960
      20    C7      19.810342   19.508101   26.113639 C.3        1 MOL1         0.0172
      21    H14     20.259171   19.771729   27.075177 H          1 MOL1         0.0934
      22    H15     18.978881   20.194011   25.930601 H          1 MOL1         0.0934
      23    N1      19.241793   18.110943   26.250247 N.4        1 MOL1        -0.5956
      24    H16     18.754196   17.819362   25.397820 H          1 MOL1         0.3624
      25    H17     18.565914   18.049297   27.019473 H          1 MOL1         0.3624
      26    H18     19.974287   17.418771   26.437751 H          1 MOL1         0.3624
@<TRIPOS>BOND
    1     1     2    1
    2     1     3    1
    3     1     4    1
    4     1     5    1
    5     5     6    1
    6     5     7    1
    7     5     8    1
    8     8     9    1
    9     8    10    1
   10     8    11    1
   11    11    12    1
   12    11    13    1
   13    11    14    1
   14    14    15    1
   15    14    16    1
   16    14    17    1
   17    17    18    1
   18    17    19    1
   19    17    20    1
   20    20    21    1
   21    20    22    1
   22    20    23    1
   23    23    24    1
   24    23    25    1
   25    23    26    1
@<TRIPOS>SUBSTRUCTURE
       1 MOL1            1 RESIDUE      1      MOL     
@<SCITEGIC>MOL_PROPERTY
VM2 Rank
SciTegic.value.IntegerValue
195

@<SCITEGIC>MOL_PROPERTY
Conf_Id
SciTegic.value.IntegerValue
837

@<SCITEGIC>MOL_PROPERTY
Probability
SciTegic.value.DoubleValue
0.00

@<SCITEGIC>MOL_PROPERTY
Sum Probability
SciTegic.value.DoubleValue
100.00

@<SCITEGIC>MOL_PROPERTY
Delta G
SciTegic.value.DoubleValue
6.251

@<SCITEGIC>MOL_PROPERTY
G
SciTegic.value.DoubleValue
54.512

@<SCITEGIC>MOL_PROPERTY
E
SciTegic.value.DoubleValue
21.880

@<SCITEGIC>MOL_PROPERTY
-TS
SciTegic.value.DoubleValue
32.632

@<SCITEGIC>MOL_PROPERTY
U+W
SciTegic.value.DoubleValue
0.418

@<SCITEGIC>MOL_PROPERTY
U
SciTegic.value.DoubleValue
54.286

@<SCITEGIC>MOL_PROPERTY
W
SciTegic.value.DoubleValue
-53.868

@<SCITEGIC>MOL_PROPERTY
W(PB)
SciTegic.value.DoubleValue
-56.110

@<SCITEGIC>MOL_PROPERTY
W(SA)
SciTegic.value.DoubleValue
2.242

@<SCITEGIC>MOL_PROPERTY
Valence
SciTegic.value.DoubleValue
7.201

@<SCITEGIC>MOL_PROPERTY
Coulomb
SciTegic.value.DoubleValue
46.253

@<SCITEGIC>MOL_PROPERTY
VdW
SciTegic.value.DoubleValue
0.832

@<SCITEGIC>MOL_PROPERTY
VdW6
SciTegic.value.DoubleValue
-8.603

@<SCITEGIC>MOL_PROPERTY
VdW12
SciTegic.value.DoubleValue
9.435

@<SCITEGIC>MOL_PROPERTY
Bond
SciTegic.value.DoubleValue
0.281

@<SCITEGIC>MOL_PROPERTY
Angle
SciTegic.value.DoubleValue
1.744

@<SCITEGIC>MOL_PROPERTY
Pdih
SciTegic.value.DoubleValue
5.177

@<SCITEGIC>MOL_PROPERTY
Idih
SciTegic.value.DoubleValue
0.000

@<SCITEGIC>MOL_PROPERTY
Tether
SciTegic.value.DoubleValue
0.000

@<TRIPOS>MOLECULE
guest-s14_vm2.mol2 : vm2 ligand conformer 196
          26          25           1
SMALL
USER_CHARGES
 
@<TRIPOS>ATOM
       1    C1      20.809084   19.761786   20.389748 C.3        1 MOL1        -0.2400
       2    H1      20.007359   20.507881   20.316415 H          1 MOL1         0.0971
       3    H2      21.425188   19.995451   21.266924 H          1 MOL1         0.0971
       4    H3      21.447254   19.866736   19.502854 H          1 MOL1         0.0971
       5    C2      20.232584   18.331533   20.473547 C.3        1 MOL1        -0.1385
       6    H4      21.056291   17.613285   20.589050 H          1 MOL1         0.0960
       7    H5      19.750054   18.089352   19.516336 H          1 MOL1         0.0960
       8    C3      19.200743   18.124752   21.611795 C.3        1 MOL1        -0.1409
       9    H6      18.325390   18.769062   21.450895 H          1 MOL1         0.0960
      10    H7      18.827444   17.094063   21.535813 H          1 MOL1         0.0960
      11    C4      19.766351   18.330941   23.041119 C.3        1 MOL1        -0.1409
      12    H8      20.841003   18.102982   23.054695 H          1 MOL1         0.0960
      13    H9      19.281190   17.601791   23.701985 H          1 MOL1         0.0960
      14    C5      19.504259   19.751201   23.603186 C.3        1 MOL1        -0.1409
      15    H10     19.794974   20.503237   22.860078 H          1 MOL1         0.0960
      16    H11     18.424934   19.886097   23.758568 H          1 MOL1         0.0960
      17    C6      20.255773   20.065439   24.921957 C.3        1 MOL1        -0.1450
      18    H12     20.059803   21.114887   25.179026 H          1 MOL1         0.0960
      19    H13     21.340768   19.989948   24.770568 H          1 MOL1         0.0960
      20    C7      19.828209   19.199817   26.125399 C.3        1 MOL1         0.0172
      21    H14     20.100006   19.716649   27.049788 H          1 MOL1         0.0934
      22    H15     18.743264   19.065178   26.118839 H          1 MOL1         0.0934
      23    N1      20.483996   17.833531   26.174249 N.4        1 MOL1        -0.5956
      24    H16     21.504753   17.904974   26.237318 H          1 MOL1         0.3624
      25    H17     20.270127   17.279541   25.340311 H          1 MOL1         0.3624
      26    H18     20.171805   17.290973   26.986993 H          1 MOL1         0.3624
@<TRIPOS>BOND
    1     1     2    1
    2     1     3    1
    3     1     4    1
    4     1     5    1
    5     5     6    1
    6     5     7    1
    7     5     8    1
    8     8     9    1
    9     8    10    1
   10     8    11    1
   11    11    12    1
   12    11    13    1
   13    11    14    1
   14    14    15    1
   15    14    16    1
   16    14    17    1
   17    17    18    1
   18    17    19    1
   19    17    20    1
   20    20    21    1
   21    20    22    1
   22    20    23    1
   23    23    24    1
   24    23    25    1
   25    23    26    1
@<TRIPOS>SUBSTRUCTURE
       1 MOL1            1 RESIDUE      1      MOL     
@<SCITEGIC>MOL_PROPERTY
VM2 Rank
SciTegic.value.IntegerValue
196

@<SCITEGIC>MOL_PROPERTY
Conf_Id
SciTegic.value.IntegerValue
816

@<SCITEGIC>MOL_PROPERTY
Probability
SciTegic.value.DoubleValue
0.00

@<SCITEGIC>MOL_PROPERTY
Sum Probability
SciTegic.value.DoubleValue
100.00

@<SCITEGIC>MOL_PROPERTY
Delta G
SciTegic.value.DoubleValue
6.268

@<SCITEGIC>MOL_PROPERTY
G
SciTegic.value.DoubleValue
54.530

@<SCITEGIC>MOL_PROPERTY
E
SciTegic.value.DoubleValue
21.582

@<SCITEGIC>MOL_PROPERTY
-TS
SciTegic.value.DoubleValue
32.948

@<SCITEGIC>MOL_PROPERTY
U+W
SciTegic.value.DoubleValue
0.120

@<SCITEGIC>MOL_PROPERTY
U
SciTegic.value.DoubleValue
54.015

@<SCITEGIC>MOL_PROPERTY
W
SciTegic.value.DoubleValue
-53.894

@<SCITEGIC>MOL_PROPERTY
W(PB)
SciTegic.value.DoubleValue
-56.155

@<SCITEGIC>MOL_PROPERTY
W(SA)
SciTegic.value.DoubleValue
2.260

@<SCITEGIC>MOL_PROPERTY
Valence
SciTegic.value.DoubleValue
6.748

@<SCITEGIC>MOL_PROPERTY
Coulomb
SciTegic.value.DoubleValue
46.597

@<SCITEGIC>MOL_PROPERTY
VdW
SciTegic.value.DoubleValue
0.670

@<SCITEGIC>MOL_PROPERTY
VdW6
SciTegic.value.DoubleValue
-8.868

@<SCITEGIC>MOL_PROPERTY
VdW12
SciTegic.value.DoubleValue
9.538

@<SCITEGIC>MOL_PROPERTY
Bond
SciTegic.value.DoubleValue
0.273

@<SCITEGIC>MOL_PROPERTY
Angle
SciTegic.value.DoubleValue
1.645

@<SCITEGIC>MOL_PROPERTY
Pdih
SciTegic.value.DoubleValue
4.830

@<SCITEGIC>MOL_PROPERTY
Idih
SciTegic.value.DoubleValue
0.000

@<SCITEGIC>MOL_PROPERTY
Tether
SciTegic.value.DoubleValue
0.000

@<TRIPOS>MOLECULE
guest-s14_vm2.mol2 : vm2 ligand conformer 197
          26          25           1
SMALL
USER_CHARGES
 
@<TRIPOS>ATOM
       1    C1      21.060774   20.304438   21.445717 C.3        1 MOL1        -0.2400
       2    H1      20.696408   20.522711   22.455046 H          1 MOL1         0.0971
       3    H2      22.130432   20.549022   21.417427 H          1 MOL1         0.0971
       4    H3      20.546613   20.979799   20.749664 H          1 MOL1         0.0971
       5    C2      20.832670   18.827197   21.048386 C.3        1 MOL1        -0.1385
       6    H4      21.419617   18.156333   21.689937 H          1 MOL1         0.0960
       7    H5      21.228498   18.689186   20.032432 H          1 MOL1         0.0960
       8    C3      19.339999   18.410702   21.053061 C.3        1 MOL1        -0.1409
       9    H6      18.706467   19.268949   20.790103 H          1 MOL1         0.0960
      10    H7      19.193897   17.681700   20.243966 H          1 MOL1         0.0960
      11    C4      18.827211   17.751118   22.362139 C.3        1 MOL1        -0.1409
      12    H8      19.403427   16.840466   22.576150 H          1 MOL1         0.0960
      13    H9      17.800592   17.408531   22.172038 H          1 MOL1         0.0960
      14    C5      18.794544   18.672033   23.608460 C.3        1 MOL1        -0.1409
      15    H10     18.642110   19.715988   23.303354 H          1 MOL1         0.0960
      16    H11     17.916574   18.406028   24.213537 H          1 MOL1         0.0960
      17    C6      20.048743   18.538173   24.504962 C.3        1 MOL1        -0.1450
      18    H12     20.958807   18.738836   23.929003 H          1 MOL1         0.0960
      19    H13     20.128144   17.505972   24.871162 H          1 MOL1         0.0960
      20    C7      19.984976   19.499819   25.704337 C.3        1 MOL1         0.0172
      21    H14     19.920545   20.530837   25.346178 H          1 MOL1         0.0934
      22    H15     19.093627   19.286280   26.300448 H          1 MOL1         0.0934
      23    N1      21.192083   19.395521   26.613938 N.4        1 MOL1        -0.5956
      24    H16     21.293929   18.454033   27.006892 H          1 MOL1         0.3624
      25    H17     21.128883   20.044152   27.406195 H          1 MOL1         0.3624
      26    H18     22.063515   19.612434   26.119343 H          1 MOL1         0.3624
@<TRIPOS>BOND
    1     1     2    1
    2     1     3    1
    3     1     4    1
    4     1     5    1
    5     5     6    1
    6     5     7    1
    7     5     8    1
    8     8     9    1
    9     8    10    1
   10     8    11    1
   11    11    12    1
   12    11    13    1
   13    11    14    1
   14    14    15    1
   15    14    16    1
   16    14    17    1
   17    17    18    1
   18    17    19    1
   19    17    20    1
   20    20    21    1
   21    20    22    1
   22    20    23    1
   23    23    24    1
   24    23    25    1
   25    23    26    1
@<TRIPOS>SUBSTRUCTURE
       1 MOL1            1 RESIDUE      1      MOL     
@<SCITEGIC>MOL_PROPERTY
VM2 Rank
SciTegic.value.IntegerValue
197

@<SCITEGIC>MOL_PROPERTY
Conf_Id
SciTegic.value.IntegerValue
377

@<SCITEGIC>MOL_PROPERTY
Probability
SciTegic.value.DoubleValue
0.00

@<SCITEGIC>MOL_PROPERTY
Sum Probability
SciTegic.value.DoubleValue
100.00

@<SCITEGIC>MOL_PROPERTY
Delta G
SciTegic.value.DoubleValue
6.313

@<SCITEGIC>MOL_PROPERTY
G
SciTegic.value.DoubleValue
54.575

@<SCITEGIC>MOL_PROPERTY
E
SciTegic.value.DoubleValue
21.354

@<SCITEGIC>MOL_PROPERTY
-TS
SciTegic.value.DoubleValue
33.221

@<SCITEGIC>MOL_PROPERTY
U+W
SciTegic.value.DoubleValue
-0.108

@<SCITEGIC>MOL_PROPERTY
U
SciTegic.value.DoubleValue
53.883

@<SCITEGIC>MOL_PROPERTY
W
SciTegic.value.DoubleValue
-53.991

@<SCITEGIC>MOL_PROPERTY
W(PB)
SciTegic.value.DoubleValue
-56.255

@<SCITEGIC>MOL_PROPERTY
W(SA)
SciTegic.value.DoubleValue
2.264

@<SCITEGIC>MOL_PROPERTY
Valence
SciTegic.value.DoubleValue
7.743

@<SCITEGIC>MOL_PROPERTY
Coulomb
SciTegic.value.DoubleValue
45.678

@<SCITEGIC>MOL_PROPERTY
VdW
SciTegic.value.DoubleValue
0.462

@<SCITEGIC>MOL_PROPERTY
VdW6
SciTegic.value.DoubleValue
-8.645

@<SCITEGIC>MOL_PROPERTY
VdW12
SciTegic.value.DoubleValue
9.107

@<SCITEGIC>MOL_PROPERTY
Bond
SciTegic.value.DoubleValue
0.266

@<SCITEGIC>MOL_PROPERTY
Angle
SciTegic.value.DoubleValue
1.932

@<SCITEGIC>MOL_PROPERTY
Pdih
SciTegic.value.DoubleValue
5.545

@<SCITEGIC>MOL_PROPERTY
Idih
SciTegic.value.DoubleValue
0.000

@<SCITEGIC>MOL_PROPERTY
Tether
SciTegic.value.DoubleValue
0.000

@<TRIPOS>MOLECULE
guest-s14_vm2.mol2 : vm2 ligand conformer 198
          26          25           1
SMALL
USER_CHARGES
 
@<TRIPOS>ATOM
       1    C1      18.588655   19.598060   21.154082 C.3        1 MOL1        -0.2400
       2    H1      18.529470   19.820705   22.224536 H          1 MOL1         0.0971
       3    H2      18.781984   20.540100   20.624808 H          1 MOL1         0.0971
       4    H3      17.603681   19.233493   20.835160 H          1 MOL1         0.0971
       5    C2      19.682155   18.552267   20.833750 C.3        1 MOL1        -0.1385
       6    H4      19.666983   18.374487   19.749290 H          1 MOL1         0.0960
       7    H5      19.443676   17.585492   21.297033 H          1 MOL1         0.0960
       8    C3      21.108563   19.006567   21.234643 C.3        1 MOL1        -0.1409
       9    H6      21.810918   18.586536   20.501372 H          1 MOL1         0.0960
      10    H7      21.200731   20.096846   21.135287 H          1 MOL1         0.0960
      11    C4      21.591153   18.556572   22.640495 C.3        1 MOL1        -0.1409
      12    H8      22.648662   18.842350   22.726896 H          1 MOL1         0.0960
      13    H9      21.579081   17.460172   22.710469 H          1 MOL1         0.0960
      14    C5      20.833832   19.180426   23.840301 C.3        1 MOL1        -0.1409
      15    H10     21.558405   19.358264   24.646188 H          1 MOL1         0.0960
      16    H11     20.440711   20.168487   23.565993 H          1 MOL1         0.0960
      17    C6      19.705306   18.272093   24.391165 C.3        1 MOL1        -0.1450
      18    H12     20.134635   17.337969   24.776971 H          1 MOL1         0.0960
      19    H13     19.021874   17.983904   23.584812 H          1 MOL1         0.0960
      20    C7      18.883506   18.954444   25.501496 C.3        1 MOL1         0.0172
      21    H14     18.455258   19.886157   25.122177 H          1 MOL1         0.0934
      22    H15     18.061578   18.297996   25.799920 H          1 MOL1         0.0934
      23    N1      19.687830   19.278571   26.745068 N.4        1 MOL1        -0.5956
      24    H16     19.109734   19.720413   27.468125 H          1 MOL1         0.3624
      25    H17     20.458106   19.922870   26.541435 H          1 MOL1         0.3624
      26    H18     20.098508   18.437224   27.162706 H          1 MOL1         0.3624
@<TRIPOS>BOND
    1     1     2    1
    2     1     3    1
    3     1     4    1
    4     1     5    1
    5     5     6    1
    6     5     7    1
    7     5     8    1
    8     8     9    1
    9     8    10    1
   10     8    11    1
   11    11    12    1
   12    11    13    1
   13    11    14    1
   14    14    15    1
   15    14    16    1
   16    14    17    1
   17    17    18    1
   18    17    19    1
   19    17    20    1
   20    20    21    1
   21    20    22    1
   22    20    23    1
   23    23    24    1
   24    23    25    1
   25    23    26    1
@<TRIPOS>SUBSTRUCTURE
       1 MOL1            1 RESIDUE      1      MOL     
@<SCITEGIC>MOL_PROPERTY
VM2 Rank
SciTegic.value.IntegerValue
198

@<SCITEGIC>MOL_PROPERTY
Conf_Id
SciTegic.value.IntegerValue
796

@<SCITEGIC>MOL_PROPERTY
Probability
SciTegic.value.DoubleValue
0.00

@<SCITEGIC>MOL_PROPERTY
Sum Probability
SciTegic.value.DoubleValue
100.00

@<SCITEGIC>MOL_PROPERTY
Delta G
SciTegic.value.DoubleValue
6.540

@<SCITEGIC>MOL_PROPERTY
G
SciTegic.value.DoubleValue
54.802

@<SCITEGIC>MOL_PROPERTY
E
SciTegic.value.DoubleValue
21.466

@<SCITEGIC>MOL_PROPERTY
-TS
SciTegic.value.DoubleValue
33.336

@<SCITEGIC>MOL_PROPERTY
U+W
SciTegic.value.DoubleValue
0.004

@<SCITEGIC>MOL_PROPERTY
U
SciTegic.value.DoubleValue
54.063

@<SCITEGIC>MOL_PROPERTY
W
SciTegic.value.DoubleValue
-54.059

@<SCITEGIC>MOL_PROPERTY
W(PB)
SciTegic.value.DoubleValue
-56.251

@<SCITEGIC>MOL_PROPERTY
W(SA)
SciTegic.value.DoubleValue
2.192

@<SCITEGIC>MOL_PROPERTY
Valence
SciTegic.value.DoubleValue
7.875

@<SCITEGIC>MOL_PROPERTY
Coulomb
SciTegic.value.DoubleValue
45.591

@<SCITEGIC>MOL_PROPERTY
VdW
SciTegic.value.DoubleValue
0.597

@<SCITEGIC>MOL_PROPERTY
VdW6
SciTegic.value.DoubleValue
-9.142

@<SCITEGIC>MOL_PROPERTY
VdW12
SciTegic.value.DoubleValue
9.739

@<SCITEGIC>MOL_PROPERTY
Bond
SciTegic.value.DoubleValue
0.290

@<SCITEGIC>MOL_PROPERTY
Angle
SciTegic.value.DoubleValue
1.958

@<SCITEGIC>MOL_PROPERTY
Pdih
SciTegic.value.DoubleValue
5.626

@<SCITEGIC>MOL_PROPERTY
Idih
SciTegic.value.DoubleValue
0.000

@<SCITEGIC>MOL_PROPERTY
Tether
SciTegic.value.DoubleValue
0.000

@<TRIPOS>MOLECULE
guest-s14_vm2.mol2 : vm2 ligand conformer 199
          26          25           1
SMALL
USER_CHARGES
 
@<TRIPOS>ATOM
       1    C1      19.707218   20.494822   21.336076 C.3        1 MOL1        -0.2400
       2    H1      18.671498   20.152428   21.437966 H          1 MOL1         0.0971
       3    H2      20.036703   20.920918   22.291531 H          1 MOL1         0.0971
       4    H3      19.706401   21.302831   20.593121 H          1 MOL1         0.0971
       5    C2      20.636113   19.349560   20.879044 C.3        1 MOL1        -0.1385
       6    H4      21.593001   19.787087   20.561681 H          1 MOL1         0.0960
       7    H5      20.212383   18.871134   19.985098 H          1 MOL1         0.0960
       8    C3      20.932162   18.273507   21.955835 C.3        1 MOL1        -0.1409
       9    H6      21.673421   17.588336   21.521778 H          1 MOL1         0.0960
      10    H7      21.437598   18.720041   22.818526 H          1 MOL1         0.0960
      11    C4      19.717088   17.413411   22.398721 C.3        1 MOL1        -0.1409
      12    H8      20.099580   16.443494   22.745575 H          1 MOL1         0.0960
      13    H9      19.099318   17.183636   21.519831 H          1 MOL1         0.0960
      14    C5      18.811353   17.986912   23.523998 C.3        1 MOL1        -0.1409
      15    H10     18.290007   18.892905   23.196684 H          1 MOL1         0.0960
      16    H11     18.015887   17.250183   23.702422 H          1 MOL1         0.0960
      17    C6      19.528604   18.242833   24.873883 C.3        1 MOL1        -0.1450
      18    H12     20.357657   17.534724   25.004413 H          1 MOL1         0.0960
      19    H13     18.820697   18.043337   25.689413 H          1 MOL1         0.0960
      20    C7      20.030875   19.691855   25.023626 C.3        1 MOL1         0.0172
      21    H14     20.739899   19.931560   24.229307 H          1 MOL1         0.0934
      22    H15     19.185951   20.381282   24.945104 H          1 MOL1         0.0934
      23    N1      20.717588   19.946100   26.349818 N.4        1 MOL1        -0.5956
      24    H16     21.539431   19.346297   26.475794 H          1 MOL1         0.3624
      25    H17     20.092220   19.771109   27.143184 H          1 MOL1         0.3624
      26    H18     21.040048   20.916383   26.432518 H          1 MOL1         0.3624
@<TRIPOS>BOND
    1     1     2    1
    2     1     3    1
    3     1     4    1
    4     1     5    1
    5     5     6    1
    6     5     7    1
    7     5     8    1
    8     8     9    1
    9     8    10    1
   10     8    11    1
   11    11    12    1
   12    11    13    1
   13    11    14    1
   14    14    15    1
   15    14    16    1
   16    14    17    1
   17    17    18    1
   18    17    19    1
   19    17    20    1
   20    20    21    1
   21    20    22    1
   22    20    23    1
   23    23    24    1
   24    23    25    1
   25    23    26    1
@<TRIPOS>SUBSTRUCTURE
       1 MOL1            1 RESIDUE      1      MOL     
@<SCITEGIC>MOL_PROPERTY
VM2 Rank
SciTegic.value.IntegerValue
199

@<SCITEGIC>MOL_PROPERTY
Conf_Id
SciTegic.value.IntegerValue
799

@<SCITEGIC>MOL_PROPERTY
Probability
SciTegic.value.DoubleValue
0.00

@<SCITEGIC>MOL_PROPERTY
Sum Probability
SciTegic.value.DoubleValue
100.00

@<SCITEGIC>MOL_PROPERTY
Delta G
SciTegic.value.DoubleValue
6.713

@<SCITEGIC>MOL_PROPERTY
G
SciTegic.value.DoubleValue
54.974

@<SCITEGIC>MOL_PROPERTY
E
SciTegic.value.DoubleValue
21.946

@<SCITEGIC>MOL_PROPERTY
-TS
SciTegic.value.DoubleValue
33.028

@<SCITEGIC>MOL_PROPERTY
U+W
SciTegic.value.DoubleValue
0.484

@<SCITEGIC>MOL_PROPERTY
U
SciTegic.value.DoubleValue
54.806

@<SCITEGIC>MOL_PROPERTY
W
SciTegic.value.DoubleValue
-54.322

@<SCITEGIC>MOL_PROPERTY
W(PB)
SciTegic.value.DoubleValue
-56.547

@<SCITEGIC>MOL_PROPERTY
W(SA)
SciTegic.value.DoubleValue
2.225

@<SCITEGIC>MOL_PROPERTY
Valence
SciTegic.value.DoubleValue
8.228

@<SCITEGIC>MOL_PROPERTY
Coulomb
SciTegic.value.DoubleValue
46.249

@<SCITEGIC>MOL_PROPERTY
VdW
SciTegic.value.DoubleValue
0.329

@<SCITEGIC>MOL_PROPERTY
VdW6
SciTegic.value.DoubleValue
-9.307

@<SCITEGIC>MOL_PROPERTY
VdW12
SciTegic.value.DoubleValue
9.636

@<SCITEGIC>MOL_PROPERTY
Bond
SciTegic.value.DoubleValue
0.318

@<SCITEGIC>MOL_PROPERTY
Angle
SciTegic.value.DoubleValue
2.924

@<SCITEGIC>MOL_PROPERTY
Pdih
SciTegic.value.DoubleValue
4.986

@<SCITEGIC>MOL_PROPERTY
Idih
SciTegic.value.DoubleValue
0.000

@<SCITEGIC>MOL_PROPERTY
Tether
SciTegic.value.DoubleValue
0.000

@<TRIPOS>MOLECULE
guest-s14_vm2.mol2 : vm2 ligand conformer 200
          26          25           1
SMALL
USER_CHARGES
 
@<TRIPOS>ATOM
       1    C1      18.799251   20.128778   21.567007 C.3        1 MOL1        -0.2400
       2    H1      18.459720   20.860054   20.822124 H          1 MOL1         0.0971
       3    H2      17.907225   19.709758   22.050017 H          1 MOL1         0.0971
       4    H3      19.374909   20.676585   22.319188 H          1 MOL1         0.0971
       5    C2      19.635940   19.021630   20.887051 C.3        1 MOL1        -0.1385
       6    H4      19.033450   18.606645   20.066834 H          1 MOL1         0.0960
       7    H5      20.526952   19.456864   20.413721 H          1 MOL1         0.0960
       8    C3      20.040682   17.854974   21.826342 C.3        1 MOL1        -0.1409
       9    H6      19.249377   17.640355   22.553371 H          1 MOL1         0.0960
      10    H7      20.103510   16.949560   21.206901 H          1 MOL1         0.0960
      11    C4      21.420107   18.012471   22.520675 C.3        1 MOL1        -0.1409
      12    H8      22.177526   18.193683   21.745683 H          1 MOL1         0.0960
      13    H9      21.692977   17.048347   22.971384 H          1 MOL1         0.0960
      14    C5      21.556955   19.113743   23.605352 C.3        1 MOL1        -0.1409
      15    H10     22.621237   19.165841   23.873617 H          1 MOL1         0.0960
      16    H11     21.319514   20.102714   23.196646 H          1 MOL1         0.0960
      17    C6      20.765968   18.848918   24.912392 C.3        1 MOL1        -0.1450
      18    H12     21.265313   19.381684   25.732638 H          1 MOL1         0.0960
      19    H13     20.808384   17.781796   25.167492 H          1 MOL1         0.0960
      20    C7      19.302110   19.323098   24.860628 C.3        1 MOL1         0.0172
      21    H14     19.271729   20.393354   24.639965 H          1 MOL1         0.0934
      22    H15     18.761338   18.796070   24.073488 H          1 MOL1         0.0934
      23    N1      18.559987   19.095388   26.161552 N.4        1 MOL1        -0.5956
      24    H16     17.588730   19.421101   26.108744 H          1 MOL1         0.3624
      25    H17     18.999060   19.592076   26.943612 H          1 MOL1         0.3624
      26    H18     18.528790   18.102384   26.414626 H          1 MOL1         0.3624
@<TRIPOS>BOND
    1     1     2    1
    2     1     3    1
    3     1     4    1
    4     1     5    1
    5     5     6    1
    6     5     7    1
    7     5     8    1
    8     8     9    1
    9     8    10    1
   10     8    11    1
   11    11    12    1
   12    11    13    1
   13    11    14    1
   14    14    15    1
   15    14    16    1
   16    14    17    1
   17    17    18    1
   18    17    19    1
   19    17    20    1
   20    20    21    1
   21    20    22    1
   22    20    23    1
   23    23    24    1
   24    23    25    1
   25    23    26    1
@<TRIPOS>SUBSTRUCTURE
       1 MOL1            1 RESIDUE      1      MOL     
@<SCITEGIC>MOL_PROPERTY
VM2 Rank
SciTegic.value.IntegerValue
200

@<SCITEGIC>MOL_PROPERTY
Conf_Id
SciTegic.value.IntegerValue
269

@<SCITEGIC>MOL_PROPERTY
Probability
SciTegic.value.DoubleValue
0.00

@<SCITEGIC>MOL_PROPERTY
Sum Probability
SciTegic.value.DoubleValue
100.00

@<SCITEGIC>MOL_PROPERTY
Delta G
SciTegic.value.DoubleValue
6.751

@<SCITEGIC>MOL_PROPERTY
G
SciTegic.value.DoubleValue
55.013

@<SCITEGIC>MOL_PROPERTY
E
SciTegic.value.DoubleValue
21.737

@<SCITEGIC>MOL_PROPERTY
-TS
SciTegic.value.DoubleValue
33.276

@<SCITEGIC>MOL_PROPERTY
U+W
SciTegic.value.DoubleValue
0.275

@<SCITEGIC>MOL_PROPERTY
U
SciTegic.value.DoubleValue
54.656

@<SCITEGIC>MOL_PROPERTY
W
SciTegic.value.DoubleValue
-54.381

@<SCITEGIC>MOL_PROPERTY
W(PB)
SciTegic.value.DoubleValue
-56.613

@<SCITEGIC>MOL_PROPERTY
W(SA)
SciTegic.value.DoubleValue
2.233

@<SCITEGIC>MOL_PROPERTY
Valence
SciTegic.value.DoubleValue
8.239

@<SCITEGIC>MOL_PROPERTY
Coulomb
SciTegic.value.DoubleValue
46.349

@<SCITEGIC>MOL_PROPERTY
VdW
SciTegic.value.DoubleValue
0.068

@<SCITEGIC>MOL_PROPERTY
VdW6
SciTegic.value.DoubleValue
-9.596

@<SCITEGIC>MOL_PROPERTY
VdW12
SciTegic.value.DoubleValue
9.664

@<SCITEGIC>MOL_PROPERTY
Bond
SciTegic.value.DoubleValue
0.303

@<SCITEGIC>MOL_PROPERTY
Angle
SciTegic.value.DoubleValue
3.050

@<SCITEGIC>MOL_PROPERTY
Pdih
SciTegic.value.DoubleValue
4.886

@<SCITEGIC>MOL_PROPERTY
Idih
SciTegic.value.DoubleValue
0.000

@<SCITEGIC>MOL_PROPERTY
Tether
SciTegic.value.DoubleValue
0.000

@<TRIPOS>MOLECULE
guest-s14_vm2.mol2 : vm2 ligand conformer 201
          26          25           1
SMALL
USER_CHARGES
 
@<TRIPOS>ATOM
       1    C1      18.739237   18.686427   20.034042 C.3        1 MOL1        -0.2400
       2    H1      17.793032   18.683991   20.590720 H          1 MOL1         0.0971
       3    H2      18.871802   19.681519   19.589646 H          1 MOL1         0.0971
       4    H3      18.649972   17.961084   19.214914 H          1 MOL1         0.0971
       5    C2      19.925771   18.327001   20.953077 C.3        1 MOL1        -0.1385
       6    H4      20.851515   18.303700   20.361021 H          1 MOL1         0.0960
       7    H5      19.781466   17.313923   21.353442 H          1 MOL1         0.0960
       8    C3      20.075512   19.335601   22.113259 C.3        1 MOL1        -0.1409
       9    H6      20.231687   20.342047   21.700593 H          1 MOL1         0.0960
      10    H7      19.139147   19.383724   22.681115 H          1 MOL1         0.0960
      11    C4      21.265222   18.978007   23.038050 C.3        1 MOL1        -0.1409
      12    H8      22.190445   19.086173   22.454959 H          1 MOL1         0.0960
      13    H9      21.228449   17.923397   23.341708 H          1 MOL1         0.0960
      14    C5      21.361757   19.890697   24.287276 C.3        1 MOL1        -0.1409
      15    H10     22.425767   20.062300   24.501553 H          1 MOL1         0.0960
      16    H11     20.943557   20.882252   24.065045 H          1 MOL1         0.0960
      17    C6      20.714988   19.320193   25.578024 C.3        1 MOL1        -0.1450
      18    H12     20.901094   20.035460   26.390170 H          1 MOL1         0.0960
      19    H13     21.220670   18.392086   25.875993 H          1 MOL1         0.0960
      20    C7      19.193009   19.083273   25.502050 C.3        1 MOL1         0.0172
      21    H14     18.784710   19.057284   26.516000 H          1 MOL1         0.0934
      22    H15     18.715082   19.906529   24.964510 H          1 MOL1         0.0934
      23    N1      18.805504   17.777802   24.835222 N.4        1 MOL1        -0.5956
      24    H16     17.787325   17.658104   24.795378 H          1 MOL1         0.3624
      25    H17     19.182622   16.968519   25.339392 H          1 MOL1         0.3624
      26    H18     19.158879   17.731883   23.874048 H          1 MOL1         0.3624
@<TRIPOS>BOND
    1     1     2    1
    2     1     3    1
    3     1     4    1
    4     1     5    1
    5     5     6    1
    6     5     7    1
    7     5     8    1
    8     8     9    1
    9     8    10    1
   10     8    11    1
   11    11    12    1
   12    11    13    1
   13    11    14    1
   14    14    15    1
   15    14    16    1
   16    14    17    1
   17    17    18    1
   18    17    19    1
   19    17    20    1
   20    20    21    1
   21    20    22    1
   22    20    23    1
   23    23    24    1
   24    23    25    1
   25    23    26    1
@<TRIPOS>SUBSTRUCTURE
       1 MOL1            1 RESIDUE      1      MOL     
@<SCITEGIC>MOL_PROPERTY
VM2 Rank
SciTegic.value.IntegerValue
201

@<SCITEGIC>MOL_PROPERTY
Conf_Id
SciTegic.value.IntegerValue
234

@<SCITEGIC>MOL_PROPERTY
Probability
SciTegic.value.DoubleValue
0.00

@<SCITEGIC>MOL_PROPERTY
Sum Probability
SciTegic.value.DoubleValue
100.00

@<SCITEGIC>MOL_PROPERTY
Delta G
SciTegic.value.DoubleValue
6.832

@<SCITEGIC>MOL_PROPERTY
G
SciTegic.value.DoubleValue
55.094

@<SCITEGIC>MOL_PROPERTY
E
SciTegic.value.DoubleValue
21.961

@<SCITEGIC>MOL_PROPERTY
-TS
SciTegic.value.DoubleValue
33.133

@<SCITEGIC>MOL_PROPERTY
U+W
SciTegic.value.DoubleValue
0.499

@<SCITEGIC>MOL_PROPERTY
U
SciTegic.value.DoubleValue
53.726

@<SCITEGIC>MOL_PROPERTY
W
SciTegic.value.DoubleValue
-53.227

@<SCITEGIC>MOL_PROPERTY
W(PB)
SciTegic.value.DoubleValue
-55.471

@<SCITEGIC>MOL_PROPERTY
W(SA)
SciTegic.value.DoubleValue
2.244

@<SCITEGIC>MOL_PROPERTY
Valence
SciTegic.value.DoubleValue
6.198

@<SCITEGIC>MOL_PROPERTY
Coulomb
SciTegic.value.DoubleValue
47.155

@<SCITEGIC>MOL_PROPERTY
VdW
SciTegic.value.DoubleValue
0.373

@<SCITEGIC>MOL_PROPERTY
VdW6
SciTegic.value.DoubleValue
-8.927

@<SCITEGIC>MOL_PROPERTY
VdW12
SciTegic.value.DoubleValue
9.300

@<SCITEGIC>MOL_PROPERTY
Bond
SciTegic.value.DoubleValue
0.233

@<SCITEGIC>MOL_PROPERTY
Angle
SciTegic.value.DoubleValue
1.463

@<SCITEGIC>MOL_PROPERTY
Pdih
SciTegic.value.DoubleValue
4.502

@<SCITEGIC>MOL_PROPERTY
Idih
SciTegic.value.DoubleValue
0.000

@<SCITEGIC>MOL_PROPERTY
Tether
SciTegic.value.DoubleValue
0.000

@<TRIPOS>MOLECULE
guest-s14_vm2.mol2 : vm2 ligand conformer 202
          26          25           1
SMALL
USER_CHARGES
 
@<TRIPOS>ATOM
       1    C1      20.879814   20.098153   20.105539 C.3        1 MOL1        -0.2400
       2    H1      21.227670   20.949213   20.705450 H          1 MOL1         0.0971
       3    H2      21.619243   19.919318   19.314132 H          1 MOL1         0.0971
       4    H3      19.934464   20.382308   19.625083 H          1 MOL1         0.0971
       5    C2      20.701237   18.838442   20.978986 C.3        1 MOL1        -0.1385
       6    H4      21.669780   18.559315   21.416543 H          1 MOL1         0.0960
       7    H5      20.386671   17.997119   20.345504 H          1 MOL1         0.0960
       8    C3      19.662058   19.062944   22.099443 C.3        1 MOL1        -0.1409
       9    H6      19.959145   19.924533   22.708507 H          1 MOL1         0.0960
      10    H7      18.695515   19.328951   21.649271 H          1 MOL1         0.0960
      11    C4      19.480302   17.800845   22.978417 C.3        1 MOL1        -0.1409
      12    H8      20.449277   17.409560   23.315679 H          1 MOL1         0.0960
      13    H9      19.044780   17.011555   22.349868 H          1 MOL1         0.0960
      14    C5      18.545975   18.033646   24.193209 C.3        1 MOL1        -0.1409
      15    H10     17.809797   18.815500   23.960383 H          1 MOL1         0.0960
      16    H11     17.960565   17.117434   24.352373 H          1 MOL1         0.0960
      17    C6      19.263938   18.363144   25.529537 C.3        1 MOL1        -0.1450
      18    H12     19.904006   17.523648   25.831931 H          1 MOL1         0.0960
      19    H13     18.496130   18.449211   26.309850 H          1 MOL1         0.0960
      20    C7      20.082694   19.670031   25.531768 C.3        1 MOL1         0.0172
      21    H14     19.539204   20.450028   24.992010 H          1 MOL1         0.0934
      22    H15     20.219676   20.003716   26.563935 H          1 MOL1         0.0934
      23    N1      21.464982   19.531795   24.924101 N.4        1 MOL1        -0.5956
      24    H16     21.976562   20.421045   24.935364 H          1 MOL1         0.3624
      25    H17     21.413161   19.218591   23.949394 H          1 MOL1         0.3624
      26    H18     22.036776   18.850929   25.434806 H          1 MOL1         0.3624
@<TRIPOS>BOND
    1     1     2    1
    2     1     3    1
    3     1     4    1
    4     1     5    1
    5     5     6    1
    6     5     7    1
    7     5     8    1
    8     8     9    1
    9     8    10    1
   10     8    11    1
   11    11    12    1
   12    11    13    1
   13    11    14    1
   14    14    15    1
   15    14    16    1
   16    14    17    1
   17    17    18    1
   18    17    19    1
   19    17    20    1
   20    20    21    1
   21    20    22    1
   22    20    23    1
   23    23    24    1
   24    23    25    1
   25    23    26    1
@<TRIPOS>SUBSTRUCTURE
       1 MOL1            1 RESIDUE      1      MOL     
@<SCITEGIC>MOL_PROPERTY
VM2 Rank
SciTegic.value.IntegerValue
202

@<SCITEGIC>MOL_PROPERTY
Conf_Id
SciTegic.value.IntegerValue
715

@<SCITEGIC>MOL_PROPERTY
Probability
SciTegic.value.DoubleValue
0.00

@<SCITEGIC>MOL_PROPERTY
Sum Probability
SciTegic.value.DoubleValue
100.00

@<SCITEGIC>MOL_PROPERTY
Delta G
SciTegic.value.DoubleValue
6.834

@<SCITEGIC>MOL_PROPERTY
G
SciTegic.value.DoubleValue
55.096

@<SCITEGIC>MOL_PROPERTY
E
SciTegic.value.DoubleValue
21.963

@<SCITEGIC>MOL_PROPERTY
-TS
SciTegic.value.DoubleValue
33.133

@<SCITEGIC>MOL_PROPERTY
U+W
SciTegic.value.DoubleValue
0.501

@<SCITEGIC>MOL_PROPERTY
U
SciTegic.value.DoubleValue
53.726

@<SCITEGIC>MOL_PROPERTY
W
SciTegic.value.DoubleValue
-53.225

@<SCITEGIC>MOL_PROPERTY
W(PB)
SciTegic.value.DoubleValue
-55.464

@<SCITEGIC>MOL_PROPERTY
W(SA)
SciTegic.value.DoubleValue
2.239

@<SCITEGIC>MOL_PROPERTY
Valence
SciTegic.value.DoubleValue
6.198

@<SCITEGIC>MOL_PROPERTY
Coulomb
SciTegic.value.DoubleValue
47.155

@<SCITEGIC>MOL_PROPERTY
VdW
SciTegic.value.DoubleValue
0.373

@<SCITEGIC>MOL_PROPERTY
VdW6
SciTegic.value.DoubleValue
-8.927

@<SCITEGIC>MOL_PROPERTY
VdW12
SciTegic.value.DoubleValue
9.300

@<SCITEGIC>MOL_PROPERTY
Bond
SciTegic.value.DoubleValue
0.233

@<SCITEGIC>MOL_PROPERTY
Angle
SciTegic.value.DoubleValue
1.462

@<SCITEGIC>MOL_PROPERTY
Pdih
SciTegic.value.DoubleValue
4.503

@<SCITEGIC>MOL_PROPERTY
Idih
SciTegic.value.DoubleValue
0.000

@<SCITEGIC>MOL_PROPERTY
Tether
SciTegic.value.DoubleValue
0.000

@<TRIPOS>MOLECULE
guest-s14_vm2.mol2 : vm2 ligand conformer 203
          26          25           1
SMALL
USER_CHARGES
 
@<TRIPOS>ATOM
       1    C1      21.407628   19.603738   20.967769 C.3        1 MOL1        -0.2400
       2    H1      21.261178   20.303741   21.797254 H          1 MOL1         0.0971
       3    H2      22.483727   19.403854   20.884954 H          1 MOL1         0.0971
       4    H3      21.090470   20.106298   20.044814 H          1 MOL1         0.0971
       5    C2      20.625738   18.285214   21.172220 C.3        1 MOL1        -0.1385
       6    H4      21.012043   17.733813   22.039928 H          1 MOL1         0.0960
       7    H5      20.818126   17.642869   20.301440 H          1 MOL1         0.0960
       8    C3      19.095656   18.492788   21.301084 C.3        1 MOL1        -0.1409
       9    H6      18.782614   19.375304   20.726378 H          1 MOL1         0.0960
      10    H7      18.600166   17.639369   20.817777 H          1 MOL1         0.0960
      11    C4      18.548749   18.579529   22.751685 C.3        1 MOL1        -0.1409
      12    H8      18.779222   17.652394   23.291851 H          1 MOL1         0.0960
      13    H9      17.452547   18.608742   22.682000 H          1 MOL1         0.0960
      14    C5      19.000931   19.821685   23.565453 C.3        1 MOL1        -0.1409
      15    H10     19.172719   20.667083   22.885974 H          1 MOL1         0.0960
      16    H11     18.172640   20.134460   24.216407 H          1 MOL1         0.0960
      17    C6      20.247955   19.593606   24.456818 C.3        1 MOL1        -0.1450
      18    H12     20.558296   20.557313   24.881848 H          1 MOL1         0.0960
      19    H13     21.090815   19.232326   23.857589 H          1 MOL1         0.0960
      20    C7      19.978680   18.606708   25.608517 C.3        1 MOL1         0.0172
      21    H14     19.147381   18.971180   26.217986 H          1 MOL1         0.0934
      22    H15     19.705894   17.628671   25.204526 H          1 MOL1         0.0934
      23    N1      21.175663   18.415731   26.517454 N.4        1 MOL1        -0.5956
      24    H16     20.975142   17.756803   27.277687 H          1 MOL1         0.3624
      25    H17     21.467150   19.295904   26.955034 H          1 MOL1         0.3624
      26    H18     21.986602   18.047778   26.009495 H          1 MOL1         0.3624
@<TRIPOS>BOND
    1     1     2    1
    2     1     3    1
    3     1     4    1
    4     1     5    1
    5     5     6    1
    6     5     7    1
    7     5     8    1
    8     8     9    1
    9     8    10    1
   10     8    11    1
   11    11    12    1
   12    11    13    1
   13    11    14    1
   14    14    15    1
   15    14    16    1
   16    14    17    1
   17    17    18    1
   18    17    19    1
   19    17    20    1
   20    20    21    1
   21    20    22    1
   22    20    23    1
   23    23    24    1
   24    23    25    1
   25    23    26    1
@<TRIPOS>SUBSTRUCTURE
       1 MOL1            1 RESIDUE      1      MOL     
@<SCITEGIC>MOL_PROPERTY
VM2 Rank
SciTegic.value.IntegerValue
203

@<SCITEGIC>MOL_PROPERTY
Conf_Id
SciTegic.value.IntegerValue
255

@<SCITEGIC>MOL_PROPERTY
Probability
SciTegic.value.DoubleValue
0.00

@<SCITEGIC>MOL_PROPERTY
Sum Probability
SciTegic.value.DoubleValue
100.00

@<SCITEGIC>MOL_PROPERTY
Delta G
SciTegic.value.DoubleValue
6.861

@<SCITEGIC>MOL_PROPERTY
G
SciTegic.value.DoubleValue
55.122

@<SCITEGIC>MOL_PROPERTY
E
SciTegic.value.DoubleValue
21.852

@<SCITEGIC>MOL_PROPERTY
-TS
SciTegic.value.DoubleValue
33.270

@<SCITEGIC>MOL_PROPERTY
U+W
SciTegic.value.DoubleValue
0.391

@<SCITEGIC>MOL_PROPERTY
U
SciTegic.value.DoubleValue
54.561

@<SCITEGIC>MOL_PROPERTY
W
SciTegic.value.DoubleValue
-54.171

@<SCITEGIC>MOL_PROPERTY
W(PB)
SciTegic.value.DoubleValue
-56.394

@<SCITEGIC>MOL_PROPERTY
W(SA)
SciTegic.value.DoubleValue
2.223

@<SCITEGIC>MOL_PROPERTY
Valence
SciTegic.value.DoubleValue
8.178

@<SCITEGIC>MOL_PROPERTY
Coulomb
SciTegic.value.DoubleValue
45.812

@<SCITEGIC>MOL_PROPERTY
VdW
SciTegic.value.DoubleValue
0.572

@<SCITEGIC>MOL_PROPERTY
VdW6
SciTegic.value.DoubleValue
-9.082

@<SCITEGIC>MOL_PROPERTY
VdW12
SciTegic.value.DoubleValue
9.654

@<SCITEGIC>MOL_PROPERTY
Bond
SciTegic.value.DoubleValue
0.296

@<SCITEGIC>MOL_PROPERTY
Angle
SciTegic.value.DoubleValue
2.094

@<SCITEGIC>MOL_PROPERTY
Pdih
SciTegic.value.DoubleValue
5.788

@<SCITEGIC>MOL_PROPERTY
Idih
SciTegic.value.DoubleValue
0.000

@<SCITEGIC>MOL_PROPERTY
Tether
SciTegic.value.DoubleValue
0.000

@<TRIPOS>MOLECULE
guest-s14_vm2.mol2 : vm2 ligand conformer 204
          26          25           1
SMALL
USER_CHARGES
 
@<TRIPOS>ATOM
       1    C1      19.990803   20.273976   20.066245 C.3        1 MOL1        -0.2400
       2    H1      21.035437   20.447618   19.776765 H          1 MOL1         0.0971
       3    H2      19.395427   20.195372   19.147343 H          1 MOL1         0.0971
       4    H3      19.638952   21.153301   20.621412 H          1 MOL1         0.0971
       5    C2      19.855324   18.991664   20.914510 C.3        1 MOL1        -0.1385
       6    H4      20.183083   18.127448   20.320026 H          1 MOL1         0.0960
       7    H5      18.795570   18.828431   21.150139 H          1 MOL1         0.0960
       8    C3      20.689929   19.077725   22.214543 C.3        1 MOL1        -0.1409
       9    H6      21.739566   19.259558   21.945025 H          1 MOL1         0.0960
      10    H7      20.362064   19.947403   22.796324 H          1 MOL1         0.0960
      11    C4      20.615206   17.785868   23.070228 C.3        1 MOL1        -0.1409
      12    H8      21.446211   17.758127   23.787382 H          1 MOL1         0.0960
      13    H9      20.780093   16.924647   22.407929 H          1 MOL1         0.0960
      14    C5      19.270939   17.589593   23.821364 C.3        1 MOL1        -0.1409
      15    H10     18.446146   18.060346   23.271538 H          1 MOL1         0.0960
      16    H11     19.041393   16.515082   23.828985 H          1 MOL1         0.0960
      17    C6      19.257774   18.076337   25.294958 C.3        1 MOL1        -0.1450
      18    H12     19.995981   17.518078   25.885951 H          1 MOL1         0.0960
      19    H13     18.278869   17.822059   25.722642 H          1 MOL1         0.0960
      20    C7      19.472317   19.591413   25.485038 C.3        1 MOL1         0.0172
      21    H14     18.942221   20.142671   24.703822 H          1 MOL1         0.0934
      22    H15     19.060496   19.892009   26.452262 H          1 MOL1         0.0934
      23    N1      20.928708   20.012423   25.474113 N.4        1 MOL1        -0.5956
      24    H16     21.033175   21.026362   25.590367 H          1 MOL1         0.3624
      25    H17     21.385114   19.755238   24.593571 H          1 MOL1         0.3624
      26    H18     21.456880   19.568455   26.232529 H          1 MOL1         0.3624
@<TRIPOS>BOND
    1     1     2    1
    2     1     3    1
    3     1     4    1
    4     1     5    1
    5     5     6    1
    6     5     7    1
    7     5     8    1
    8     8     9    1
    9     8    10    1
   10     8    11    1
   11    11    12    1
   12    11    13    1
   13    11    14    1
   14    14    15    1
   15    14    16    1
   16    14    17    1
   17    17    18    1
   18    17    19    1
   19    17    20    1
   20    20    21    1
   21    20    22    1
   22    20    23    1
   23    23    24    1
   24    23    25    1
   25    23    26    1
@<TRIPOS>SUBSTRUCTURE
       1 MOL1            1 RESIDUE      1      MOL     
@<SCITEGIC>MOL_PROPERTY
VM2 Rank
SciTegic.value.IntegerValue
204

@<SCITEGIC>MOL_PROPERTY
Conf_Id
SciTegic.value.IntegerValue
1344

@<SCITEGIC>MOL_PROPERTY
Probability
SciTegic.value.DoubleValue
0.00

@<SCITEGIC>MOL_PROPERTY
Sum Probability
SciTegic.value.DoubleValue
100.00

@<SCITEGIC>MOL_PROPERTY
Delta G
SciTegic.value.DoubleValue
6.865

@<SCITEGIC>MOL_PROPERTY
G
SciTegic.value.DoubleValue
55.127

@<SCITEGIC>MOL_PROPERTY
E
SciTegic.value.DoubleValue
21.974

@<SCITEGIC>MOL_PROPERTY
-TS
SciTegic.value.DoubleValue
33.153

@<SCITEGIC>MOL_PROPERTY
U+W
SciTegic.value.DoubleValue
0.512

@<SCITEGIC>MOL_PROPERTY
U
SciTegic.value.DoubleValue
54.574

@<SCITEGIC>MOL_PROPERTY
W
SciTegic.value.DoubleValue
-54.062

@<SCITEGIC>MOL_PROPERTY
W(PB)
SciTegic.value.DoubleValue
-56.307

@<SCITEGIC>MOL_PROPERTY
W(SA)
SciTegic.value.DoubleValue
2.245

@<SCITEGIC>MOL_PROPERTY
Valence
SciTegic.value.DoubleValue
6.966

@<SCITEGIC>MOL_PROPERTY
Coulomb
SciTegic.value.DoubleValue
47.041

@<SCITEGIC>MOL_PROPERTY
VdW
SciTegic.value.DoubleValue
0.567

@<SCITEGIC>MOL_PROPERTY
VdW6
SciTegic.value.DoubleValue
-9.189

@<SCITEGIC>MOL_PROPERTY
VdW12
SciTegic.value.DoubleValue
9.756

@<SCITEGIC>MOL_PROPERTY
Bond
SciTegic.value.DoubleValue
0.281

@<SCITEGIC>MOL_PROPERTY
Angle
SciTegic.value.DoubleValue
1.616

@<SCITEGIC>MOL_PROPERTY
Pdih
SciTegic.value.DoubleValue
5.070

@<SCITEGIC>MOL_PROPERTY
Idih
SciTegic.value.DoubleValue
0.000

@<SCITEGIC>MOL_PROPERTY
Tether
SciTegic.value.DoubleValue
0.000

@<TRIPOS>MOLECULE
guest-s14_vm2.mol2 : vm2 ligand conformer 205
          26          25           1
SMALL
USER_CHARGES
 
@<TRIPOS>ATOM
       1    C1      20.860115   20.456413   21.614745 C.3        1 MOL1        -0.2400
       2    H1      21.896150   20.801335   21.503088 H          1 MOL1         0.0971
       3    H2      20.215280   21.156423   21.067772 H          1 MOL1         0.0971
       4    H3      20.599251   20.520359   22.675796 H          1 MOL1         0.0971
       5    C2      20.704590   19.020205   21.063090 C.3        1 MOL1        -0.1385
       6    H4      21.422037   18.339635   21.540822 H          1 MOL1         0.0960
       7    H5      20.975594   19.038955   19.998157 H          1 MOL1         0.0960
       8    C3      19.263824   18.465200   21.193661 C.3        1 MOL1        -0.1409
       9    H6      18.534922   19.285219   21.135682 H          1 MOL1         0.0960
      10    H7      19.066273   17.836845   20.314142 H          1 MOL1         0.0960
      11    C4      18.988190   17.595142   22.450005 C.3        1 MOL1        -0.1409
      12    H8      19.654701   16.721805   22.456538 H          1 MOL1         0.0960
      13    H9      17.973723   17.186284   22.344515 H          1 MOL1         0.0960
      14    C5      19.059133   18.336393   23.809720 C.3        1 MOL1        -0.1409
      15    H10     18.771427   19.387076   23.677136 H          1 MOL1         0.0960
      16    H11     18.304483   17.900719   24.479272 H          1 MOL1         0.0960
      17    C6      20.438714   18.214621   24.505960 C.3        1 MOL1        -0.1450
      18    H12     21.235511   18.626517   23.876990 H          1 MOL1         0.0960
      19    H13     20.677308   17.152169   24.647174 H          1 MOL1         0.0960
      20    C7      20.469564   18.903056   25.883971 C.3        1 MOL1         0.0172
      21    H14     19.674888   18.497050   26.515647 H          1 MOL1         0.0934
      22    H15     21.427977   18.700072   26.369525 H          1 MOL1         0.0934
      23    N1      20.296869   20.407969   25.819848 N.4        1 MOL1        -0.5956
      24    H16     20.326907   20.832981   26.753046 H          1 MOL1         0.3624
      25    H17     19.399216   20.669133   25.400571 H          1 MOL1         0.3624
      26    H18     21.035042   20.852567   25.264934 H          1 MOL1         0.3624
@<TRIPOS>BOND
    1     1     2    1
    2     1     3    1
    3     1     4    1
    4     1     5    1
    5     5     6    1
    6     5     7    1
    7     5     8    1
    8     8     9    1
    9     8    10    1
   10     8    11    1
   11    11    12    1
   12    11    13    1
   13    11    14    1
   14    14    15    1
   15    14    16    1
   16    14    17    1
   17    17    18    1
   18    17    19    1
   19    17    20    1
   20    20    21    1
   21    20    22    1
   22    20    23    1
   23    23    24    1
   24    23    25    1
   25    23    26    1
@<TRIPOS>SUBSTRUCTURE
       1 MOL1            1 RESIDUE      1      MOL     
@<SCITEGIC>MOL_PROPERTY
VM2 Rank
SciTegic.value.IntegerValue
205

@<SCITEGIC>MOL_PROPERTY
Conf_Id
SciTegic.value.IntegerValue
1088

@<SCITEGIC>MOL_PROPERTY
Probability
SciTegic.value.DoubleValue
0.00

@<SCITEGIC>MOL_PROPERTY
Sum Probability
SciTegic.value.DoubleValue
100.00

@<SCITEGIC>MOL_PROPERTY
Delta G
SciTegic.value.DoubleValue
7.125

@<SCITEGIC>MOL_PROPERTY
G
SciTegic.value.DoubleValue
55.386

@<SCITEGIC>MOL_PROPERTY
E
SciTegic.value.DoubleValue
21.974

@<SCITEGIC>MOL_PROPERTY
-TS
SciTegic.value.DoubleValue
33.412

@<SCITEGIC>MOL_PROPERTY
U+W
SciTegic.value.DoubleValue
0.512

@<SCITEGIC>MOL_PROPERTY
U
SciTegic.value.DoubleValue
54.899

@<SCITEGIC>MOL_PROPERTY
W
SciTegic.value.DoubleValue
-54.387

@<SCITEGIC>MOL_PROPERTY
W(PB)
SciTegic.value.DoubleValue
-56.584

@<SCITEGIC>MOL_PROPERTY
W(SA)
SciTegic.value.DoubleValue
2.198

@<SCITEGIC>MOL_PROPERTY
Valence
SciTegic.value.DoubleValue
7.854

@<SCITEGIC>MOL_PROPERTY
Coulomb
SciTegic.value.DoubleValue
46.638

@<SCITEGIC>MOL_PROPERTY
VdW
SciTegic.value.DoubleValue
0.407

@<SCITEGIC>MOL_PROPERTY
VdW6
SciTegic.value.DoubleValue
-9.363

@<SCITEGIC>MOL_PROPERTY
VdW12
SciTegic.value.DoubleValue
9.770

@<SCITEGIC>MOL_PROPERTY
Bond
SciTegic.value.DoubleValue
0.292

@<SCITEGIC>MOL_PROPERTY
Angle
SciTegic.value.DoubleValue
1.989

@<SCITEGIC>MOL_PROPERTY
Pdih
SciTegic.value.DoubleValue
5.573

@<SCITEGIC>MOL_PROPERTY
Idih
SciTegic.value.DoubleValue
0.000

@<SCITEGIC>MOL_PROPERTY
Tether
SciTegic.value.DoubleValue
0.000

@<TRIPOS>MOLECULE
guest-s14_vm2.mol2 : vm2 ligand conformer 206
          26          25           1
SMALL
USER_CHARGES
 
@<TRIPOS>ATOM
       1    C1      20.160961   20.266204   20.847052 C.3        1 MOL1        -0.2400
       2    H1      19.290238   20.514037   21.462638 H          1 MOL1         0.0971
       3    H2      21.024400   20.820598   21.236819 H          1 MOL1         0.0971
       4    H3      19.960179   20.634164   19.832587 H          1 MOL1         0.0971
       5    C2      20.443213   18.746271   20.821458 C.3        1 MOL1        -0.1385
       6    H4      21.265019   18.570616   20.113176 H          1 MOL1         0.0960
       7    H5      19.576503   18.205218   20.417166 H          1 MOL1         0.0960
       8    C3      20.852631   18.157960   22.196807 C.3        1 MOL1        -0.1409
       9    H6      21.537014   17.319420   22.007415 H          1 MOL1         0.0960
      10    H7      21.441349   18.890260   22.763160 H          1 MOL1         0.0960
      11    C4      19.677411   17.603685   23.047810 C.3        1 MOL1        -0.1409
      12    H8      20.082086   17.046109   23.901218 H          1 MOL1         0.0960
      13    H9      19.138289   16.854154   22.452217 H          1 MOL1         0.0960
      14    C5      18.652310   18.646484   23.562953 C.3        1 MOL1        -0.1409
      15    H10     18.109382   19.066146   22.707004 H          1 MOL1         0.0960
      16    H11     17.890387   18.120438   24.154498 H          1 MOL1         0.0960
      17    C6      19.228057   19.805768   24.420215 C.3        1 MOL1        -0.1450
      18    H12     18.405171   20.499499   24.637401 H          1 MOL1         0.0960
      19    H13     19.964679   20.388485   23.853694 H          1 MOL1         0.0960
      20    C7      19.828178   19.360101   25.769716 C.3        1 MOL1         0.0172
      21    H14     19.863377   20.218413   26.446093 H          1 MOL1         0.0934
      22    H15     19.190043   18.597146   26.223457 H          1 MOL1         0.0934
      23    N1      21.238238   18.812526   25.674990 N.4        1 MOL1        -0.5956
      24    H16     21.895483   19.517829   25.326885 H          1 MOL1         0.3624
      25    H17     21.288195   18.010424   25.040418 H          1 MOL1         0.3624
      26    H18     21.587759   18.502232   26.588183 H          1 MOL1         0.3624
@<TRIPOS>BOND
    1     1     2    1
    2     1     3    1
    3     1     4    1
    4     1     5    1
    5     5     6    1
    6     5     7    1
    7     5     8    1
    8     8     9    1
    9     8    10    1
   10     8    11    1
   11    11    12    1
   12    11    13    1
   13    11    14    1
   14    14    15    1
   15    14    16    1
   16    14    17    1
   17    17    18    1
   18    17    19    1
   19    17    20    1
   20    20    21    1
   21    20    22    1
   22    20    23    1
   23    23    24    1
   24    23    25    1
   25    23    26    1
@<TRIPOS>SUBSTRUCTURE
       1 MOL1            1 RESIDUE      1      MOL     
@<SCITEGIC>MOL_PROPERTY
VM2 Rank
SciTegic.value.IntegerValue
206

@<SCITEGIC>MOL_PROPERTY
Conf_Id
SciTegic.value.IntegerValue
507

@<SCITEGIC>MOL_PROPERTY
Probability
SciTegic.value.DoubleValue
0.00

@<SCITEGIC>MOL_PROPERTY
Sum Probability
SciTegic.value.DoubleValue
100.00

@<SCITEGIC>MOL_PROPERTY
Delta G
SciTegic.value.DoubleValue
7.337

@<SCITEGIC>MOL_PROPERTY
G
SciTegic.value.DoubleValue
55.599

@<SCITEGIC>MOL_PROPERTY
E
SciTegic.value.DoubleValue
21.945

@<SCITEGIC>MOL_PROPERTY
-TS
SciTegic.value.DoubleValue
33.654

@<SCITEGIC>MOL_PROPERTY
U+W
SciTegic.value.DoubleValue
0.483

@<SCITEGIC>MOL_PROPERTY
U
SciTegic.value.DoubleValue
54.731

@<SCITEGIC>MOL_PROPERTY
W
SciTegic.value.DoubleValue
-54.248

@<SCITEGIC>MOL_PROPERTY
W(PB)
SciTegic.value.DoubleValue
-56.395

@<SCITEGIC>MOL_PROPERTY
W(SA)
SciTegic.value.DoubleValue
2.147

@<SCITEGIC>MOL_PROPERTY
Valence
SciTegic.value.DoubleValue
7.253

@<SCITEGIC>MOL_PROPERTY
Coulomb
SciTegic.value.DoubleValue
47.328

@<SCITEGIC>MOL_PROPERTY
VdW
SciTegic.value.DoubleValue
0.149

@<SCITEGIC>MOL_PROPERTY
VdW6
SciTegic.value.DoubleValue
-10.450

@<SCITEGIC>MOL_PROPERTY
VdW12
SciTegic.value.DoubleValue
10.600

@<SCITEGIC>MOL_PROPERTY
Bond
SciTegic.value.DoubleValue
0.329

@<SCITEGIC>MOL_PROPERTY
Angle
SciTegic.value.DoubleValue
2.592

@<SCITEGIC>MOL_PROPERTY
Pdih
SciTegic.value.DoubleValue
4.331

@<SCITEGIC>MOL_PROPERTY
Idih
SciTegic.value.DoubleValue
0.000

@<SCITEGIC>MOL_PROPERTY
Tether
SciTegic.value.DoubleValue
0.000

@<TRIPOS>MOLECULE
guest-s14_vm2.mol2 : vm2 ligand conformer 207
          26          25           1
SMALL
USER_CHARGES
 
@<TRIPOS>ATOM
       1    C1      19.283110   20.116012   20.889487 C.3        1 MOL1        -0.2400
       2    H1      19.090816   20.629711   19.938683 H          1 MOL1         0.0971
       3    H2      18.458781   19.410967   21.053586 H          1 MOL1         0.0971
       4    H3      19.263643   20.869708   21.686759 H          1 MOL1         0.0971
       5    C2      20.644241   19.387810   20.842563 C.3        1 MOL1        -0.1385
       6    H4      21.418194   20.107060   20.540174 H          1 MOL1         0.0960
       7    H5      20.619827   18.619976   20.056710 H          1 MOL1         0.0960
       8    C3      21.068908   18.742261   22.186235 C.3        1 MOL1        -0.1409
       9    H6      22.070817   18.314241   22.044105 H          1 MOL1         0.0960
      10    H7      21.187108   19.520201   22.948041 H          1 MOL1         0.0960
      11    C4      20.128971   17.609603   22.681821 C.3        1 MOL1        -0.1409
      12    H8      20.728593   16.834780   23.178938 H          1 MOL1         0.0960
      13    H9      19.684113   17.112616   21.808758 H          1 MOL1         0.0960
      14    C5      18.995912   18.060662   23.644005 C.3        1 MOL1        -0.1409
      15    H10     18.624631   19.056759   23.376711 H          1 MOL1         0.0960
      16    H11     18.143816   17.381504   23.503257 H          1 MOL1         0.0960
      17    C6      19.380921   18.016807   25.146447 C.3        1 MOL1        -0.1450
      18    H12     19.702932   16.999874   25.407019 H          1 MOL1         0.0960
      19    H13     18.487228   18.214611   25.753072 H          1 MOL1         0.0960
      20    C7      20.488268   19.005933   25.557186 C.3        1 MOL1         0.0172
      21    H14     20.741427   18.849365   26.609257 H          1 MOL1         0.0934
      22    H15     21.386698   18.824161   24.962169 H          1 MOL1         0.0934
      23    N1      20.090669   20.459912   25.393257 N.4        1 MOL1        -0.5956
      24    H16     19.274007   20.695830   25.966428 H          1 MOL1         0.3624
      25    H17     19.852579   20.678448   24.421165 H          1 MOL1         0.3624
      26    H18     20.845922   21.095282   25.672909 H          1 MOL1         0.3624
@<TRIPOS>BOND
    1     1     2    1
    2     1     3    1
    3     1     4    1
    4     1     5    1
    5     5     6    1
    6     5     7    1
    7     5     8    1
    8     8     9    1
    9     8    10    1
   10     8    11    1
   11    11    12    1
   12    11    13    1
   13    11    14    1
   14    14    15    1
   15    14    16    1
   16    14    17    1
   17    17    18    1
   18    17    19    1
   19    17    20    1
   20    20    21    1
   21    20    22    1
   22    20    23    1
   23    23    24    1
   24    23    25    1
   25    23    26    1
@<TRIPOS>SUBSTRUCTURE
       1 MOL1            1 RESIDUE      1      MOL     
@<SCITEGIC>MOL_PROPERTY
VM2 Rank
SciTegic.value.IntegerValue
207

@<SCITEGIC>MOL_PROPERTY
Conf_Id
SciTegic.value.IntegerValue
522

@<SCITEGIC>MOL_PROPERTY
Probability
SciTegic.value.DoubleValue
0.00

@<SCITEGIC>MOL_PROPERTY
Sum Probability
SciTegic.value.DoubleValue
100.00

@<SCITEGIC>MOL_PROPERTY
Delta G
SciTegic.value.DoubleValue
7.349

@<SCITEGIC>MOL_PROPERTY
G
SciTegic.value.DoubleValue
55.610

@<SCITEGIC>MOL_PROPERTY
E
SciTegic.value.DoubleValue
22.215

@<SCITEGIC>MOL_PROPERTY
-TS
SciTegic.value.DoubleValue
33.395

@<SCITEGIC>MOL_PROPERTY
U+W
SciTegic.value.DoubleValue
0.753

@<SCITEGIC>MOL_PROPERTY
U
SciTegic.value.DoubleValue
54.948

@<SCITEGIC>MOL_PROPERTY
W
SciTegic.value.DoubleValue
-54.195

@<SCITEGIC>MOL_PROPERTY
W(PB)
SciTegic.value.DoubleValue
-56.389

@<SCITEGIC>MOL_PROPERTY
W(SA)
SciTegic.value.DoubleValue
2.194

@<SCITEGIC>MOL_PROPERTY
Valence
SciTegic.value.DoubleValue
7.630

@<SCITEGIC>MOL_PROPERTY
Coulomb
SciTegic.value.DoubleValue
46.869

@<SCITEGIC>MOL_PROPERTY
VdW
SciTegic.value.DoubleValue
0.449

@<SCITEGIC>MOL_PROPERTY
VdW6
SciTegic.value.DoubleValue
-9.856

@<SCITEGIC>MOL_PROPERTY
VdW12
SciTegic.value.DoubleValue
10.305

@<SCITEGIC>MOL_PROPERTY
Bond
SciTegic.value.DoubleValue
0.325

@<SCITEGIC>MOL_PROPERTY
Angle
SciTegic.value.DoubleValue
1.917

@<SCITEGIC>MOL_PROPERTY
Pdih
SciTegic.value.DoubleValue
5.389

@<SCITEGIC>MOL_PROPERTY
Idih
SciTegic.value.DoubleValue
0.000

@<SCITEGIC>MOL_PROPERTY
Tether
SciTegic.value.DoubleValue
0.000

@<TRIPOS>MOLECULE
guest-s14_vm2.mol2 : vm2 ligand conformer 208
          26          25           1
SMALL
USER_CHARGES
 
@<TRIPOS>ATOM
       1    C1      18.832821   19.390577   20.802653 C.3        1 MOL1        -0.2400
       2    H1      18.621072   19.751297   19.787817 H          1 MOL1         0.0971
       3    H2      17.966207   18.804387   21.134555 H          1 MOL1         0.0971
       4    H3      18.918720   20.269093   21.450232 H          1 MOL1         0.0971
       5    C2      20.118947   18.532481   20.810646 C.3        1 MOL1        -0.1385
       6    H4      19.990298   17.730184   20.070612 H          1 MOL1         0.0960
       7    H5      20.975258   19.127378   20.463942 H          1 MOL1         0.0960
       8    C3      20.434293   17.882194   22.182871 C.3        1 MOL1        -0.1409
       9    H6      19.504044   17.613138   22.698483 H          1 MOL1         0.0960
      10    H7      20.944199   16.928625   21.987677 H          1 MOL1         0.0960
      11    C4      21.365601   18.716667   23.104221 C.3        1 MOL1        -0.1409
      12    H8      22.293523   18.934302   22.557616 H          1 MOL1         0.0960
      13    H9      21.678919   18.098861   23.954576 H          1 MOL1         0.0960
      14    C5      20.786856   20.053729   23.634275 C.3        1 MOL1        -0.1409
      15    H10     21.541887   20.527737   24.276474 H          1 MOL1         0.0960
      16    H11     20.654648   20.744165   22.792043 H          1 MOL1         0.0960
      17    C6      19.456070   19.956124   24.427880 C.3        1 MOL1        -0.1450
      18    H12     18.657749   19.527043   23.810070 H          1 MOL1         0.0960
      19    H13     19.132351   20.978891   24.661824 H          1 MOL1         0.0960
      20    C7      19.566666   19.187651   25.760975 C.3        1 MOL1         0.0172
      21    H14     20.497004   19.458676   26.267149 H          1 MOL1         0.0934
      22    H15     18.733114   19.473206   26.408335 H          1 MOL1         0.0934
      23    N1      19.519746   17.679577   25.617479 N.4        1 MOL1        -0.5956
      24    H16     19.624790   17.208085   26.522482 H          1 MOL1         0.3624
      25    H17     20.266277   17.336705   25.006187 H          1 MOL1         0.3624
      26    H18     18.629933   17.365004   25.217634 H          1 MOL1         0.3624
@<TRIPOS>BOND
    1     1     2    1
    2     1     3    1
    3     1     4    1
    4     1     5    1
    5     5     6    1
    6     5     7    1
    7     5     8    1
    8     8     9    1
    9     8    10    1
   10     8    11    1
   11    11    12    1
   12    11    13    1
   13    11    14    1
   14    14    15    1
   15    14    16    1
   16    14    17    1
   17    17    18    1
   18    17    19    1
   19    17    20    1
   20    20    21    1
   21    20    22    1
   22    20    23    1
   23    23    24    1
   24    23    25    1
   25    23    26    1
@<TRIPOS>SUBSTRUCTURE
       1 MOL1            1 RESIDUE      1      MOL     
@<SCITEGIC>MOL_PROPERTY
VM2 Rank
SciTegic.value.IntegerValue
208

@<SCITEGIC>MOL_PROPERTY
Conf_Id
SciTegic.value.IntegerValue
751

@<SCITEGIC>MOL_PROPERTY
Probability
SciTegic.value.DoubleValue
0.00

@<SCITEGIC>MOL_PROPERTY
Sum Probability
SciTegic.value.DoubleValue
100.00

@<SCITEGIC>MOL_PROPERTY
Delta G
SciTegic.value.DoubleValue
7.359

@<SCITEGIC>MOL_PROPERTY
G
SciTegic.value.DoubleValue
55.620

@<SCITEGIC>MOL_PROPERTY
E
SciTegic.value.DoubleValue
21.966

@<SCITEGIC>MOL_PROPERTY
-TS
SciTegic.value.DoubleValue
33.654

@<SCITEGIC>MOL_PROPERTY
U+W
SciTegic.value.DoubleValue
0.504

@<SCITEGIC>MOL_PROPERTY
U
SciTegic.value.DoubleValue
54.731

@<SCITEGIC>MOL_PROPERTY
W
SciTegic.value.DoubleValue
-54.227

@<SCITEGIC>MOL_PROPERTY
W(PB)
SciTegic.value.DoubleValue
-56.358

@<SCITEGIC>MOL_PROPERTY
W(SA)
SciTegic.value.DoubleValue
2.131

@<SCITEGIC>MOL_PROPERTY
Valence
SciTegic.value.DoubleValue
7.253

@<SCITEGIC>MOL_PROPERTY
Coulomb
SciTegic.value.DoubleValue
47.329

@<SCITEGIC>MOL_PROPERTY
VdW
SciTegic.value.DoubleValue
0.149

@<SCITEGIC>MOL_PROPERTY
VdW6
SciTegic.value.DoubleValue
-10.450

@<SCITEGIC>MOL_PROPERTY
VdW12
SciTegic.value.DoubleValue
10.599

@<SCITEGIC>MOL_PROPERTY
Bond
SciTegic.value.DoubleValue
0.329

@<SCITEGIC>MOL_PROPERTY
Angle
SciTegic.value.DoubleValue
2.593

@<SCITEGIC>MOL_PROPERTY
Pdih
SciTegic.value.DoubleValue
4.331

@<SCITEGIC>MOL_PROPERTY
Idih
SciTegic.value.DoubleValue
0.000

@<SCITEGIC>MOL_PROPERTY
Tether
SciTegic.value.DoubleValue
0.000

@<TRIPOS>MOLECULE
guest-s14_vm2.mol2 : vm2 ligand conformer 209
          26          25           1
SMALL
USER_CHARGES
 
@<TRIPOS>ATOM
       1    C1      19.523397   17.466878   21.106844 C.3        1 MOL1        -0.2400
       2    H1      20.353993   17.015836   20.548633 H          1 MOL1         0.0971
       3    H2      19.598597   17.140464   22.150527 H          1 MOL1         0.0971
       4    H3      18.587684   17.063076   20.699173 H          1 MOL1         0.0971
       5    C2      19.547251   19.007695   20.983504 C.3        1 MOL1        -0.1385
       6    H4      18.696646   19.445791   21.521492 H          1 MOL1         0.0960
       7    H5      19.402231   19.274812   19.927459 H          1 MOL1         0.0960
       8    C3      20.874254   19.638839   21.471651 C.3        1 MOL1        -0.1409
       9    H6      21.703391   19.201353   20.898682 H          1 MOL1         0.0960
      10    H7      20.871873   20.708214   21.219548 H          1 MOL1         0.0960
      11    C4      21.176594   19.480679   22.985971 C.3        1 MOL1        -0.1409
      12    H8      22.181631   19.888525   23.161532 H          1 MOL1         0.0960
      13    H9      21.242570   18.419253   23.247572 H          1 MOL1         0.0960
      14    C5      20.187825   20.235514   23.917118 C.3        1 MOL1        -0.1409
      15    H10     20.742149   20.659576   24.765903 H          1 MOL1         0.0960
      16    H11     19.781006   21.101814   23.377625 H          1 MOL1         0.0960
      17    C6      19.014318   19.382476   24.468755 C.3        1 MOL1        -0.1450
      18    H12     18.645023   18.678551   23.714921 H          1 MOL1         0.0960
      19    H13     18.174889   20.055790   24.687106 H          1 MOL1         0.0960
      20    C7      19.349008   18.630185   25.774210 C.3        1 MOL1         0.0172
      21    H14     19.693244   19.343901   26.527472 H          1 MOL1         0.0934
      22    H15     18.443449   18.149337   26.153983 H          1 MOL1         0.0934
      23    N1      20.408353   17.556735   25.632946 N.4        1 MOL1        -0.5956
      24    H16     21.297833   17.949736   25.309899 H          1 MOL1         0.3624
      25    H17     20.129636   16.833109   24.962914 H          1 MOL1         0.3624
      26    H18     20.592828   17.085575   26.525343 H          1 MOL1         0.3624
@<TRIPOS>BOND
    1     1     2    1
    2     1     3    1
    3     1     4    1
    4     1     5    1
    5     5     6    1
    6     5     7    1
    7     5     8    1
    8     8     9    1
    9     8    10    1
   10     8    11    1
   11    11    12    1
   12    11    13    1
   13    11    14    1
   14    14    15    1
   15    14    16    1
   16    14    17    1
   17    17    18    1
   18    17    19    1
   19    17    20    1
   20    20    21    1
   21    20    22    1
   22    20    23    1
   23    23    24    1
   24    23    25    1
   25    23    26    1
@<TRIPOS>SUBSTRUCTURE
       1 MOL1            1 RESIDUE      1      MOL     
@<SCITEGIC>MOL_PROPERTY
VM2 Rank
SciTegic.value.IntegerValue
209

@<SCITEGIC>MOL_PROPERTY
Conf_Id
SciTegic.value.IntegerValue
236

@<SCITEGIC>MOL_PROPERTY
Probability
SciTegic.value.DoubleValue
0.00

@<SCITEGIC>MOL_PROPERTY
Sum Probability
SciTegic.value.DoubleValue
100.00

@<SCITEGIC>MOL_PROPERTY
Delta G
SciTegic.value.DoubleValue
7.422

@<SCITEGIC>MOL_PROPERTY
G
SciTegic.value.DoubleValue
55.683

@<SCITEGIC>MOL_PROPERTY
E
SciTegic.value.DoubleValue
22.304

@<SCITEGIC>MOL_PROPERTY
-TS
SciTegic.value.DoubleValue
33.379

@<SCITEGIC>MOL_PROPERTY
U+W
SciTegic.value.DoubleValue
0.842

@<SCITEGIC>MOL_PROPERTY
U
SciTegic.value.DoubleValue
55.059

@<SCITEGIC>MOL_PROPERTY
W
SciTegic.value.DoubleValue
-54.216

@<SCITEGIC>MOL_PROPERTY
W(PB)
SciTegic.value.DoubleValue
-56.398

@<SCITEGIC>MOL_PROPERTY
W(SA)
SciTegic.value.DoubleValue
2.182

@<SCITEGIC>MOL_PROPERTY
Valence
SciTegic.value.DoubleValue
7.670

@<SCITEGIC>MOL_PROPERTY
Coulomb
SciTegic.value.DoubleValue
46.878

@<SCITEGIC>MOL_PROPERTY
VdW
SciTegic.value.DoubleValue
0.510

@<SCITEGIC>MOL_PROPERTY
VdW6
SciTegic.value.DoubleValue
-9.789

@<SCITEGIC>MOL_PROPERTY
VdW12
SciTegic.value.DoubleValue
10.298

@<SCITEGIC>MOL_PROPERTY
Bond
SciTegic.value.DoubleValue
0.327

@<SCITEGIC>MOL_PROPERTY
Angle
SciTegic.value.DoubleValue
1.986

@<SCITEGIC>MOL_PROPERTY
Pdih
SciTegic.value.DoubleValue
5.358

@<SCITEGIC>MOL_PROPERTY
Idih
SciTegic.value.DoubleValue
0.000

@<SCITEGIC>MOL_PROPERTY
Tether
SciTegic.value.DoubleValue
0.000

@<TRIPOS>MOLECULE
guest-s14_vm2.mol2 : vm2 ligand conformer 210
          26          25           1
SMALL
USER_CHARGES
 
@<TRIPOS>ATOM
       1    C1      20.037028   20.618278   21.684746 C.3        1 MOL1        -0.2400
       2    H1      19.352996   20.803578   22.521567 H          1 MOL1         0.0971
       3    H2      21.062522   20.565014   22.065368 H          1 MOL1         0.0971
       4    H3      19.988087   21.487754   21.016533 H          1 MOL1         0.0971
       5    C2      19.651640   19.334753   20.918497 C.3        1 MOL1        -0.1385
       6    H4      20.412803   19.120838   20.155348 H          1 MOL1         0.0960
       7    H5      18.720510   19.530257   20.368435 H          1 MOL1         0.0960
       8    C3      19.431969   18.081196   21.804728 C.3        1 MOL1        -0.1409
       9    H6      18.638791   18.260365   22.538214 H          1 MOL1         0.0960
      10    H7      19.032477   17.296820   21.147091 H          1 MOL1         0.0960
      11    C4      20.705474   17.503829   22.480789 C.3        1 MOL1        -0.1409
      12    H8      21.543334   17.554737   21.772097 H          1 MOL1         0.0960
      13    H9      20.537951   16.431803   22.654082 H          1 MOL1         0.0960
      14    C5      21.142544   18.132143   23.833048 C.3        1 MOL1        -0.1409
      15    H10     22.049491   17.600741   24.152948 H          1 MOL1         0.0960
      16    H11     21.458256   19.171526   23.703958 H          1 MOL1         0.0960
      17    C6      20.100790   18.010090   24.977560 C.3        1 MOL1        -0.1450
      18    H12     20.630502   17.886832   25.931574 H          1 MOL1         0.0960
      19    H13     19.507756   17.095592   24.844768 H          1 MOL1         0.0960
      20    C7      19.154743   19.221696   25.108702 C.3        1 MOL1         0.0172
      21    H14     18.650540   19.414217   24.160162 H          1 MOL1         0.0934
      22    H15     18.391368   19.002330   25.860108 H          1 MOL1         0.0934
      23    N1      19.856811   20.497014   25.532930 N.4        1 MOL1        -0.5956
      24    H16     19.200619   21.279845   25.626332 H          1 MOL1         0.3624
      25    H17     20.571425   20.780135   24.855876 H          1 MOL1         0.3624
      26    H18     20.323639   20.389055   26.439265 H          1 MOL1         0.3624
@<TRIPOS>BOND
    1     1     2    1
    2     1     3    1
    3     1     4    1
    4     1     5    1
    5     5     6    1
    6     5     7    1
    7     5     8    1
    8     8     9    1
    9     8    10    1
   10     8    11    1
   11    11    12    1
   12    11    13    1
   13    11    14    1
   14    14    15    1
   15    14    16    1
   16    14    17    1
   17    17    18    1
   18    17    19    1
   19    17    20    1
   20    20    21    1
   21    20    22    1
   22    20    23    1
   23    23    24    1
   24    23    25    1
   25    23    26    1
@<TRIPOS>SUBSTRUCTURE
       1 MOL1            1 RESIDUE      1      MOL     
@<SCITEGIC>MOL_PROPERTY
VM2 Rank
SciTegic.value.IntegerValue
210

@<SCITEGIC>MOL_PROPERTY
Conf_Id
SciTegic.value.IntegerValue
1351

@<SCITEGIC>MOL_PROPERTY
Probability
SciTegic.value.DoubleValue
0.00

@<SCITEGIC>MOL_PROPERTY
Sum Probability
SciTegic.value.DoubleValue
100.00

@<SCITEGIC>MOL_PROPERTY
Delta G
SciTegic.value.DoubleValue
7.657

@<SCITEGIC>MOL_PROPERTY
G
SciTegic.value.DoubleValue
55.919

@<SCITEGIC>MOL_PROPERTY
E
SciTegic.value.DoubleValue
22.724

@<SCITEGIC>MOL_PROPERTY
-TS
SciTegic.value.DoubleValue
33.194

@<SCITEGIC>MOL_PROPERTY
U+W
SciTegic.value.DoubleValue
1.262

@<SCITEGIC>MOL_PROPERTY
U
SciTegic.value.DoubleValue
55.755

@<SCITEGIC>MOL_PROPERTY
W
SciTegic.value.DoubleValue
-54.493

@<SCITEGIC>MOL_PROPERTY
W(PB)
SciTegic.value.DoubleValue
-56.648

@<SCITEGIC>MOL_PROPERTY
W(SA)
SciTegic.value.DoubleValue
2.155

@<SCITEGIC>MOL_PROPERTY
Valence
SciTegic.value.DoubleValue
8.451

@<SCITEGIC>MOL_PROPERTY
Coulomb
SciTegic.value.DoubleValue
47.113

@<SCITEGIC>MOL_PROPERTY
VdW
SciTegic.value.DoubleValue
0.191

@<SCITEGIC>MOL_PROPERTY
VdW6
SciTegic.value.DoubleValue
-10.124

@<SCITEGIC>MOL_PROPERTY
VdW12
SciTegic.value.DoubleValue
10.315

@<SCITEGIC>MOL_PROPERTY
Bond
SciTegic.value.DoubleValue
0.350

@<SCITEGIC>MOL_PROPERTY
Angle
SciTegic.value.DoubleValue
3.075

@<SCITEGIC>MOL_PROPERTY
Pdih
SciTegic.value.DoubleValue
5.027

@<SCITEGIC>MOL_PROPERTY
Idih
SciTegic.value.DoubleValue
0.000

@<SCITEGIC>MOL_PROPERTY
Tether
SciTegic.value.DoubleValue
0.000

@<TRIPOS>MOLECULE
guest-s14_vm2.mol2 : vm2 ligand conformer 211
          26          25           1
SMALL
USER_CHARGES
 
@<TRIPOS>ATOM
       1    C1      21.372991   19.177390   20.284397 C.3        1 MOL1        -0.2400
       2    H1      21.135054   20.236347   20.119330 H          1 MOL1         0.0971
       3    H2      22.464359   19.066842   20.242843 H          1 MOL1         0.0971
       4    H3      20.944319   18.597641   19.456526 H          1 MOL1         0.0971
       5    C2      20.827139   18.692047   21.643888 C.3        1 MOL1        -0.1385
       6    H4      21.311119   19.265910   22.441035 H          1 MOL1         0.0960
       7    H5      21.107827   17.639713   21.789003 H          1 MOL1         0.0960
       8    C3      19.289098   18.838236   21.722884 C.3        1 MOL1        -0.1409
       9    H6      18.999125   19.887858   21.577179 H          1 MOL1         0.0960
      10    H7      18.854367   18.286499   20.877782 H          1 MOL1         0.0960
      11    C4      18.660840   18.287213   23.030549 C.3        1 MOL1        -0.1409
      12    H8      19.226911   17.428407   23.408104 H          1 MOL1         0.0960
      13    H9      17.674340   17.878996   22.770092 H          1 MOL1         0.0960
      14    C5      18.423969   19.344956   24.142413 C.3        1 MOL1        -0.1409
      15    H10     17.803034   20.149561   23.724916 H          1 MOL1         0.0960
      16    H11     17.814879   18.888760   24.935075 H          1 MOL1         0.0960
      17    C6      19.677741   19.983987   24.794732 C.3        1 MOL1        -0.1450
      18    H12     19.331779   20.820535   25.416228 H          1 MOL1         0.0960
      19    H13     20.332247   20.437053   24.042034 H          1 MOL1         0.0960
      20    C7      20.470388   19.035483   25.719339 C.3        1 MOL1         0.0172
      21    H14     21.117546   19.630955   26.368989 H          1 MOL1         0.0934
      22    H15     19.776135   18.479077   26.354662 H          1 MOL1         0.0934
      23    N1      21.358833   18.039688   25.002799 N.4        1 MOL1        -0.5956
      24    H16     21.841568   17.419964   25.662731 H          1 MOL1         0.3624
      25    H17     22.082164   18.507942   24.448279 H          1 MOL1         0.3624
      26    H18     20.820364   17.445366   24.366801 H          1 MOL1         0.3624
@<TRIPOS>BOND
    1     1     2    1
    2     1     3    1
    3     1     4    1
    4     1     5    1
    5     5     6    1
    6     5     7    1
    7     5     8    1
    8     8     9    1
    9     8    10    1
   10     8    11    1
   11    11    12    1
   12    11    13    1
   13    11    14    1
   14    14    15    1
   15    14    16    1
   16    14    17    1
   17    17    18    1
   18    17    19    1
   19    17    20    1
   20    20    21    1
   21    20    22    1
   22    20    23    1
   23    23    24    1
   24    23    25    1
   25    23    26    1
@<TRIPOS>SUBSTRUCTURE
       1 MOL1            1 RESIDUE      1      MOL     
@<SCITEGIC>MOL_PROPERTY
VM2 Rank
SciTegic.value.IntegerValue
211

@<SCITEGIC>MOL_PROPERTY
Conf_Id
SciTegic.value.IntegerValue
854

@<SCITEGIC>MOL_PROPERTY
Probability
SciTegic.value.DoubleValue
0.00

@<SCITEGIC>MOL_PROPERTY
Sum Probability
SciTegic.value.DoubleValue
100.00

@<SCITEGIC>MOL_PROPERTY
Delta G
SciTegic.value.DoubleValue
7.699

@<SCITEGIC>MOL_PROPERTY
G
SciTegic.value.DoubleValue
55.960

@<SCITEGIC>MOL_PROPERTY
E
SciTegic.value.DoubleValue
22.964

@<SCITEGIC>MOL_PROPERTY
-TS
SciTegic.value.DoubleValue
32.996

@<SCITEGIC>MOL_PROPERTY
U+W
SciTegic.value.DoubleValue
1.502

@<SCITEGIC>MOL_PROPERTY
U
SciTegic.value.DoubleValue
55.487

@<SCITEGIC>MOL_PROPERTY
W
SciTegic.value.DoubleValue
-53.985

@<SCITEGIC>MOL_PROPERTY
W(PB)
SciTegic.value.DoubleValue
-56.176

@<SCITEGIC>MOL_PROPERTY
W(SA)
SciTegic.value.DoubleValue
2.191

@<SCITEGIC>MOL_PROPERTY
Valence
SciTegic.value.DoubleValue
7.292

@<SCITEGIC>MOL_PROPERTY
Coulomb
SciTegic.value.DoubleValue
48.136

@<SCITEGIC>MOL_PROPERTY
VdW
SciTegic.value.DoubleValue
0.059

@<SCITEGIC>MOL_PROPERTY
VdW6
SciTegic.value.DoubleValue
-9.397

@<SCITEGIC>MOL_PROPERTY
VdW12
SciTegic.value.DoubleValue
9.457

@<SCITEGIC>MOL_PROPERTY
Bond
SciTegic.value.DoubleValue
0.292

@<SCITEGIC>MOL_PROPERTY
Angle
SciTegic.value.DoubleValue
2.593

@<SCITEGIC>MOL_PROPERTY
Pdih
SciTegic.value.DoubleValue
4.407

@<SCITEGIC>MOL_PROPERTY
Idih
SciTegic.value.DoubleValue
0.000

@<SCITEGIC>MOL_PROPERTY
Tether
SciTegic.value.DoubleValue
0.000

@<TRIPOS>MOLECULE
guest-s14_vm2.mol2 : vm2 ligand conformer 212
          26          25           1
SMALL
USER_CHARGES
 
@<TRIPOS>ATOM
       1    C1      18.860274   17.853424   20.930651 C.3        1 MOL1        -0.2400
       2    H1      19.447567   17.058846   21.406700 H          1 MOL1         0.0971
       3    H2      17.957004   18.028948   21.528512 H          1 MOL1         0.0971
       4    H3      18.538453   17.478135   19.950447 H          1 MOL1         0.0971
       5    C2      19.680486   19.152924   20.761951 C.3        1 MOL1        -0.1385
       6    H4      19.073302   19.881606   20.206681 H          1 MOL1         0.0960
       7    H5      20.565553   18.955537   20.140958 H          1 MOL1         0.0960
       8    C3      20.114367   19.788414   22.104175 C.3        1 MOL1        -0.1409
       9    H6      20.524343   20.786736   21.897182 H          1 MOL1         0.0960
      10    H7      19.232399   19.958158   22.732612 H          1 MOL1         0.0960
      11    C4      21.192919   18.964097   22.854665 C.3        1 MOL1        -0.1409
      12    H8      22.098705   18.951112   22.232640 H          1 MOL1         0.0960
      13    H9      20.898813   17.913612   22.966921 H          1 MOL1         0.0960
      14    C5      21.556796   19.559440   24.238977 C.3        1 MOL1        -0.1409
      15    H10     22.634561   19.416419   24.398488 H          1 MOL1         0.0960
      16    H11     21.402454   20.647366   24.236315 H          1 MOL1         0.0960
      17    C6      20.820233   18.923382   25.448395 C.3        1 MOL1        -0.1450
      18    H12     21.200967   19.399744   26.361602 H          1 MOL1         0.0960
      19    H13     21.082831   17.860570   25.534201 H          1 MOL1         0.0960
      20    C7      19.286314   19.081467   25.440824 C.3        1 MOL1         0.0172
      21    H14     18.907606   18.944762   26.457376 H          1 MOL1         0.0934
      22    H15     19.018392   20.088693   25.110911 H          1 MOL1         0.0934
      23    N1      18.569612   18.075852   24.561362 N.4        1 MOL1        -0.5956
      24    H16     18.884528   18.146840   23.587418 H          1 MOL1         0.3624
      25    H17     17.553491   18.218296   24.571482 H          1 MOL1         0.3624
      26    H18     18.740534   17.113419   24.871532 H          1 MOL1         0.3624
@<TRIPOS>BOND
    1     1     2    1
    2     1     3    1
    3     1     4    1
    4     1     5    1
    5     5     6    1
    6     5     7    1
    7     5     8    1
    8     8     9    1
    9     8    10    1
   10     8    11    1
   11    11    12    1
   12    11    13    1
   13    11    14    1
   14    14    15    1
   15    14    16    1
   16    14    17    1
   17    17    18    1
   18    17    19    1
   19    17    20    1
   20    20    21    1
   21    20    22    1
   22    20    23    1
   23    23    24    1
   24    23    25    1
   25    23    26    1
@<TRIPOS>SUBSTRUCTURE
       1 MOL1            1 RESIDUE      1      MOL     
@<SCITEGIC>MOL_PROPERTY
VM2 Rank
SciTegic.value.IntegerValue
212

@<SCITEGIC>MOL_PROPERTY
Conf_Id
SciTegic.value.IntegerValue
536

@<SCITEGIC>MOL_PROPERTY
Probability
SciTegic.value.DoubleValue
0.00

@<SCITEGIC>MOL_PROPERTY
Sum Probability
SciTegic.value.DoubleValue
100.00

@<SCITEGIC>MOL_PROPERTY
Delta G
SciTegic.value.DoubleValue
8.481

@<SCITEGIC>MOL_PROPERTY
G
SciTegic.value.DoubleValue
56.742

@<SCITEGIC>MOL_PROPERTY
E
SciTegic.value.DoubleValue
23.151

@<SCITEGIC>MOL_PROPERTY
-TS
SciTegic.value.DoubleValue
33.591

@<SCITEGIC>MOL_PROPERTY
U+W
SciTegic.value.DoubleValue
1.690

@<SCITEGIC>MOL_PROPERTY
U
SciTegic.value.DoubleValue
54.447

@<SCITEGIC>MOL_PROPERTY
W
SciTegic.value.DoubleValue
-52.757

@<SCITEGIC>MOL_PROPERTY
W(PB)
SciTegic.value.DoubleValue
-54.934

@<SCITEGIC>MOL_PROPERTY
W(SA)
SciTegic.value.DoubleValue
2.177

@<SCITEGIC>MOL_PROPERTY
Valence
SciTegic.value.DoubleValue
6.776

@<SCITEGIC>MOL_PROPERTY
Coulomb
SciTegic.value.DoubleValue
47.395

@<SCITEGIC>MOL_PROPERTY
VdW
SciTegic.value.DoubleValue
0.275

@<SCITEGIC>MOL_PROPERTY
VdW6
SciTegic.value.DoubleValue
-10.113

@<SCITEGIC>MOL_PROPERTY
VdW12
SciTegic.value.DoubleValue
10.388

@<SCITEGIC>MOL_PROPERTY
Bond
SciTegic.value.DoubleValue
0.270

@<SCITEGIC>MOL_PROPERTY
Angle
SciTegic.value.DoubleValue
1.774

@<SCITEGIC>MOL_PROPERTY
Pdih
SciTegic.value.DoubleValue
4.732

@<SCITEGIC>MOL_PROPERTY
Idih
SciTegic.value.DoubleValue
0.000

@<SCITEGIC>MOL_PROPERTY
Tether
SciTegic.value.DoubleValue
0.000

@<TRIPOS>MOLECULE
guest-s14_vm2.mol2 : vm2 ligand conformer 213
          26          25           1
SMALL
USER_CHARGES
 
@<TRIPOS>ATOM
       1    C1      19.257218   17.550175   21.003960 C.3        1 MOL1        -0.2400
       2    H1      18.932360   17.989851   20.051959 H          1 MOL1         0.0971
       3    H2      19.412889   16.476317   20.837609 H          1 MOL1         0.0971
       4    H3      18.437036   17.658559   21.722220 H          1 MOL1         0.0971
       5    C2      20.562269   18.215120   21.500076 C.3        1 MOL1        -0.1385
       6    H4      21.350698   18.018651   20.760080 H          1 MOL1         0.0960
       7    H5      20.900268   17.737270   22.425302 H          1 MOL1         0.0960
       8    C3      20.439258   19.748850   21.683692 C.3        1 MOL1        -0.1409
       9    H6      21.440302   20.180753   21.818908 H          1 MOL1         0.0960
      10    H7      20.064807   20.172744   20.741609 H          1 MOL1         0.0960
      11    C4      19.513111   20.218924   22.839597 C.3        1 MOL1        -0.1409
      12    H8      18.681910   19.525988   23.001021 H          1 MOL1         0.0960
      13    H9      19.035799   21.153162   22.512739 H          1 MOL1         0.0960
      14    C5      20.245147   20.536642   24.171560 C.3        1 MOL1        -0.1409
      15    H10     21.016956   21.291774   23.968208 H          1 MOL1         0.0960
      16    H11     19.535334   21.022768   24.855117 H          1 MOL1         0.0960
      17    C6      20.908845   19.347994   24.914918 C.3        1 MOL1        -0.1450
      18    H12     21.532711   19.769157   25.714394 H          1 MOL1         0.0960
      19    H13     21.602570   18.806601   24.261841 H          1 MOL1         0.0960
      20    C7      19.910972   18.380089   25.585339 C.3        1 MOL1         0.0172
      21    H14     20.438175   17.789272   26.339285 H          1 MOL1         0.0934
      22    H15     19.129992   18.953251   26.092052 H          1 MOL1         0.0934
      23    N1      19.244180   17.401206   24.641859 N.4        1 MOL1        -0.5956
      24    H16     18.753011   17.886552   23.886235 H          1 MOL1         0.3624
      25    H17     18.558090   16.813083   25.127797 H          1 MOL1         0.3624
      26    H18     19.925641   16.770913   24.207462 H          1 MOL1         0.3624
@<TRIPOS>BOND
    1     1     2    1
    2     1     3    1
    3     1     4    1
    4     1     5    1
    5     5     6    1
    6     5     7    1
    7     5     8    1
    8     8     9    1
    9     8    10    1
   10     8    11    1
   11    11    12    1
   12    11    13    1
   13    11    14    1
   14    14    15    1
   15    14    16    1
   16    14    17    1
   17    17    18    1
   18    17    19    1
   19    17    20    1
   20    20    21    1
   21    20    22    1
   22    20    23    1
   23    23    24    1
   24    23    25    1
   25    23    26    1
@<TRIPOS>SUBSTRUCTURE
       1 MOL1            1 RESIDUE      1      MOL     
@<SCITEGIC>MOL_PROPERTY
VM2 Rank
SciTegic.value.IntegerValue
213

@<SCITEGIC>MOL_PROPERTY
Conf_Id
SciTegic.value.IntegerValue
1369

@<SCITEGIC>MOL_PROPERTY
Probability
SciTegic.value.DoubleValue
0.00

@<SCITEGIC>MOL_PROPERTY
Sum Probability
SciTegic.value.DoubleValue
100.00

@<SCITEGIC>MOL_PROPERTY
Delta G
SciTegic.value.DoubleValue
9.277

@<SCITEGIC>MOL_PROPERTY
G
SciTegic.value.DoubleValue
57.539

@<SCITEGIC>MOL_PROPERTY
E
SciTegic.value.DoubleValue
24.163

@<SCITEGIC>MOL_PROPERTY
-TS
SciTegic.value.DoubleValue
33.375

@<SCITEGIC>MOL_PROPERTY
U+W
SciTegic.value.DoubleValue
2.702

@<SCITEGIC>MOL_PROPERTY
U
SciTegic.value.DoubleValue
56.051

@<SCITEGIC>MOL_PROPERTY
W
SciTegic.value.DoubleValue
-53.349

@<SCITEGIC>MOL_PROPERTY
W(PB)
SciTegic.value.DoubleValue
-55.505

@<SCITEGIC>MOL_PROPERTY
W(SA)
SciTegic.value.DoubleValue
2.156

@<SCITEGIC>MOL_PROPERTY
Valence
SciTegic.value.DoubleValue
8.063

@<SCITEGIC>MOL_PROPERTY
Coulomb
SciTegic.value.DoubleValue
48.004

@<SCITEGIC>MOL_PROPERTY
VdW
SciTegic.value.DoubleValue
-0.017

@<SCITEGIC>MOL_PROPERTY
VdW6
SciTegic.value.DoubleValue
-10.370

@<SCITEGIC>MOL_PROPERTY
VdW12
SciTegic.value.DoubleValue
10.352

@<SCITEGIC>MOL_PROPERTY
Bond
SciTegic.value.DoubleValue
0.341

@<SCITEGIC>MOL_PROPERTY
Angle
SciTegic.value.DoubleValue
2.906

@<SCITEGIC>MOL_PROPERTY
Pdih
SciTegic.value.DoubleValue
4.817

@<SCITEGIC>MOL_PROPERTY
Idih
SciTegic.value.DoubleValue
0.000

@<SCITEGIC>MOL_PROPERTY
Tether
SciTegic.value.DoubleValue
0.000

