@<TRIPOS>MOLECULE
guest-s17_vm2.mol2 : vm2 ligand conformer 1
          25          25           1
SMALL
USER_CHARGES
 
@<TRIPOS>ATOM
       1    C1      21.264947   19.569986   21.138375 C.3        1 MOL1        -0.1684
       2    H1      22.046893   19.718296   21.891613 H          1 MOL1         0.0833
       3    H2      21.774580   19.741480   20.180278 H          1 MOL1         0.0833
       4    C2      20.759533   18.103808   21.158316 C.3        1 MOL1        -0.1684
       5    H3      19.715236   18.040866   20.826517 H          1 MOL1         0.0833
       6    H4      21.332699   17.546821   20.404487 H          1 MOL1         0.0833
       7    C3      20.952981   17.366200   22.509384 C.3        1 MOL1        -0.1684
       8    H5      22.013355   17.400498   22.794722 H          1 MOL1         0.0833
       9    H6      20.726642   16.303858   22.345144 H          1 MOL1         0.0833
      10    C4      20.085769   17.854789   23.700274 C.3        1 MOL1        -0.1760
      11    H7      19.020281   17.798958   23.447812 H          1 MOL1         0.0833
      12    H8      20.224571   17.130963   24.514732 H          1 MOL1         0.0833
      13    C5      20.454440   19.264586   24.230119 C.3        1 MOL1         0.1219
      14    H9      21.470264   19.513822   23.901728 H          1 MOL1         0.0790
      15    C6      19.485787   20.391419   23.794559 C.3        1 MOL1        -0.1760
      16    H10     18.576931   20.318194   24.407040 H          1 MOL1         0.0833
      17    H11     19.939809   21.359807   24.041150 H          1 MOL1         0.0833
      18    C7      19.043646   20.409520   22.308553 C.3        1 MOL1        -0.1684
      19    H12     18.309085   21.218479   22.195839 H          1 MOL1         0.0833
      20    H13     18.489034   19.496679   22.062752 H          1 MOL1         0.0833
      21    C8      20.164510   20.655250   21.267582 C.3        1 MOL1        -0.1684
      22    H14     20.641097   21.624370   21.468179 H          1 MOL1         0.0833
      23    H15     19.682174   20.760362   20.286099 H          1 MOL1         0.0833
      24    O1      20.452386   19.227442   25.652838 O.3        1 MOL1        -0.5508
      25    H16     20.731574   20.115633   25.958795 H          1 MOL1         0.3780
@<TRIPOS>BOND
    1     1     2    1
    2     1     3    1
    3     1     4    1
    4     4     5    1
    5     4     6    1
    6     4     7    1
    7     7     8    1
    8     7     9    1
    9     7    10    1
   10    10    11    1
   11    10    12    1
   12    10    13    1
   13    13    14    1
   14    13    15    1
   15    15    16    1
   16    15    17    1
   17    15    18    1
   18    18    19    1
   19    18    20    1
   20     1    21    1
   21    18    21    1
   22    21    22    1
   23    21    23    1
   24    13    24    1
   25    24    25    1
@<TRIPOS>SUBSTRUCTURE
       1 MOL1            1 RESIDUE      1      MOL     
@<SCITEGIC>MOL_PROPERTY
VM2 Rank
SciTegic.value.IntegerValue
1

@<SCITEGIC>MOL_PROPERTY
Conf_Id
SciTegic.value.IntegerValue
1482

@<SCITEGIC>MOL_PROPERTY
Probability
SciTegic.value.DoubleValue
4.69

@<SCITEGIC>MOL_PROPERTY
Sum Probability
SciTegic.value.DoubleValue
4.69

@<SCITEGIC>MOL_PROPERTY
Delta G
SciTegic.value.DoubleValue
0.000

@<SCITEGIC>MOL_PROPERTY
G
SciTegic.value.DoubleValue
62.075

@<SCITEGIC>MOL_PROPERTY
E
SciTegic.value.DoubleValue
29.291

@<SCITEGIC>MOL_PROPERTY
-TS
SciTegic.value.DoubleValue
32.785

@<SCITEGIC>MOL_PROPERTY
U+W
SciTegic.value.DoubleValue
8.723

@<SCITEGIC>MOL_PROPERTY
U
SciTegic.value.DoubleValue
10.905

@<SCITEGIC>MOL_PROPERTY
W
SciTegic.value.DoubleValue
-2.182

@<SCITEGIC>MOL_PROPERTY
W(PB)
SciTegic.value.DoubleValue
-4.296

@<SCITEGIC>MOL_PROPERTY
W(SA)
SciTegic.value.DoubleValue
2.114

@<SCITEGIC>MOL_PROPERTY
Valence
SciTegic.value.DoubleValue
16.378

@<SCITEGIC>MOL_PROPERTY
Coulomb
SciTegic.value.DoubleValue
-8.448

@<SCITEGIC>MOL_PROPERTY
VdW
SciTegic.value.DoubleValue
2.976

@<SCITEGIC>MOL_PROPERTY
VdW6
SciTegic.value.DoubleValue
-12.570

@<SCITEGIC>MOL_PROPERTY
VdW12
SciTegic.value.DoubleValue
15.546

@<SCITEGIC>MOL_PROPERTY
Bond
SciTegic.value.DoubleValue
0.439

@<SCITEGIC>MOL_PROPERTY
Angle
SciTegic.value.DoubleValue
5.049

@<SCITEGIC>MOL_PROPERTY
Pdih
SciTegic.value.DoubleValue
10.889

@<SCITEGIC>MOL_PROPERTY
Idih
SciTegic.value.DoubleValue
0.000

@<SCITEGIC>MOL_PROPERTY
Tether
SciTegic.value.DoubleValue
0.000

@<TRIPOS>MOLECULE
guest-s17_vm2.mol2 : vm2 ligand conformer 2
          25          25           1
SMALL
USER_CHARGES
 
@<TRIPOS>ATOM
       1    C1      21.265596   19.569599   21.138612 C.3        1 MOL1        -0.1684
       2    H1      22.049448   19.717749   21.889880 H          1 MOL1         0.0833
       3    H2      21.773527   19.740514   20.179504 H          1 MOL1         0.0833
       4    C2      20.760041   18.103380   21.159636 C.3        1 MOL1        -0.1684
       5    H3      19.715701   18.040577   20.827918 H          1 MOL1         0.0833
       6    H4      21.332978   17.546046   20.405880 H          1 MOL1         0.0833
       7    C3      20.953489   17.365875   22.510877 C.3        1 MOL1        -0.1684
       8    H5      22.013687   17.400815   22.796749 H          1 MOL1         0.0833
       9    H6      20.727915   16.303419   22.345988 H          1 MOL1         0.0833
      10    C4      20.083263   17.854240   23.699301 C.3        1 MOL1        -0.1760
      11    H7      19.019173   17.802871   23.439459 H          1 MOL1         0.0833
      12    H8      20.211983   17.126002   24.511102 H          1 MOL1         0.0833
      13    C5      20.452856   19.264322   24.228431 C.3        1 MOL1         0.1219
      14    H9      21.465806   19.519074   23.895711 H          1 MOL1         0.0790
      15    C6      19.481483   20.388752   23.795089 C.3        1 MOL1        -0.1760
      16    H10     18.573409   20.311216   24.407844 H          1 MOL1         0.0833
      17    H11     19.934298   21.355561   24.049807 H          1 MOL1         0.0833
      18    C7      19.042948   20.411412   22.307778 C.3        1 MOL1        -0.1684
      19    H12     18.310476   21.222290   22.195520 H          1 MOL1         0.0833
      20    H13     18.486851   19.500410   22.058659 H          1 MOL1         0.0833
      21    C8      20.166540   20.656495   21.269343 C.3        1 MOL1        -0.1684
      22    H14     20.644704   21.624194   21.473039 H          1 MOL1         0.0833
      23    H15     19.685988   20.765040   20.287365 H          1 MOL1         0.0833
      24    O1      20.457784   19.228925   25.650934 O.3        1 MOL1        -0.5508
      25    H16     21.130835   18.566669   25.913421 H          1 MOL1         0.3780
@<TRIPOS>BOND
    1     1     2    1
    2     1     3    1
    3     1     4    1
    4     4     5    1
    5     4     6    1
    6     4     7    1
    7     7     8    1
    8     7     9    1
    9     7    10    1
   10    10    11    1
   11    10    12    1
   12    10    13    1
   13    13    14    1
   14    13    15    1
   15    15    16    1
   16    15    17    1
   17    15    18    1
   18    18    19    1
   19    18    20    1
   20     1    21    1
   21    18    21    1
   22    21    22    1
   23    21    23    1
   24    13    24    1
   25    24    25    1
@<TRIPOS>SUBSTRUCTURE
       1 MOL1            1 RESIDUE      1      MOL     
@<SCITEGIC>MOL_PROPERTY
VM2 Rank
SciTegic.value.IntegerValue
2

@<SCITEGIC>MOL_PROPERTY
Conf_Id
SciTegic.value.IntegerValue
735

@<SCITEGIC>MOL_PROPERTY
Probability
SciTegic.value.DoubleValue
4.42

@<SCITEGIC>MOL_PROPERTY
Sum Probability
SciTegic.value.DoubleValue
9.11

@<SCITEGIC>MOL_PROPERTY
Delta G
SciTegic.value.DoubleValue
0.036

@<SCITEGIC>MOL_PROPERTY
G
SciTegic.value.DoubleValue
62.111

@<SCITEGIC>MOL_PROPERTY
E
SciTegic.value.DoubleValue
29.304

@<SCITEGIC>MOL_PROPERTY
-TS
SciTegic.value.DoubleValue
32.807

@<SCITEGIC>MOL_PROPERTY
U+W
SciTegic.value.DoubleValue
8.736

@<SCITEGIC>MOL_PROPERTY
U
SciTegic.value.DoubleValue
10.865

@<SCITEGIC>MOL_PROPERTY
W
SciTegic.value.DoubleValue
-2.129

@<SCITEGIC>MOL_PROPERTY
W(PB)
SciTegic.value.DoubleValue
-4.247

@<SCITEGIC>MOL_PROPERTY
W(SA)
SciTegic.value.DoubleValue
2.118

@<SCITEGIC>MOL_PROPERTY
Valence
SciTegic.value.DoubleValue
16.387

@<SCITEGIC>MOL_PROPERTY
Coulomb
SciTegic.value.DoubleValue
-8.479

@<SCITEGIC>MOL_PROPERTY
VdW
SciTegic.value.DoubleValue
2.957

@<SCITEGIC>MOL_PROPERTY
VdW6
SciTegic.value.DoubleValue
-12.577

@<SCITEGIC>MOL_PROPERTY
VdW12
SciTegic.value.DoubleValue
15.534

@<SCITEGIC>MOL_PROPERTY
Bond
SciTegic.value.DoubleValue
0.441

@<SCITEGIC>MOL_PROPERTY
Angle
SciTegic.value.DoubleValue
5.030

@<SCITEGIC>MOL_PROPERTY
Pdih
SciTegic.value.DoubleValue
10.916

@<SCITEGIC>MOL_PROPERTY
Idih
SciTegic.value.DoubleValue
0.000

@<SCITEGIC>MOL_PROPERTY
Tether
SciTegic.value.DoubleValue
0.000

@<TRIPOS>MOLECULE
guest-s17_vm2.mol2 : vm2 ligand conformer 3
          25          25           1
SMALL
USER_CHARGES
 
@<TRIPOS>ATOM
       1    C1      21.242636   19.623797   21.138217 C.3        1 MOL1        -0.1684
       2    H1      21.898646   20.075911   21.890576 H          1 MOL1         0.0833
       3    H2      21.726065   19.858480   20.179934 H          1 MOL1         0.0833
       4    C2      21.232530   18.078919   21.274976 C.3        1 MOL1        -0.1684
       5    H3      20.968061   17.658570   20.294992 H          1 MOL1         0.0833
       6    H4      22.254583   17.732235   21.479391 H          1 MOL1         0.0833
       7    C3      20.264408   17.464648   22.316972 C.3        1 MOL1        -0.1684
       8    H5      20.317851   16.372708   22.209690 H          1 MOL1         0.0833
       9    H6      19.227128   17.716173   22.067820 H          1 MOL1         0.0833
      10    C4      20.561027   17.797498   23.801980 C.3        1 MOL1        -0.1760
      11    H7      19.865642   17.209247   24.415916 H          1 MOL1         0.0833
      12    H8      21.566503   17.435527   24.052402 H          1 MOL1         0.0833
      13    C5      20.447523   19.281280   24.230067 C.3        1 MOL1         0.1219
      14    H9      21.342434   19.822208   23.900840 H          1 MOL1         0.0790
      15    C6      19.190639   20.014200   23.694106 C.3        1 MOL1        -0.1760
      16    H10     18.398629   19.298613   23.443559 H          1 MOL1         0.0833
      17    H11     18.775020   20.627931   24.504738 H          1 MOL1         0.0833
      18    C7      19.460233   20.967198   22.499071 C.3        1 MOL1        -0.1684
      19    H12     20.233307   21.694569   22.782402 H          1 MOL1         0.0833
      20    H13     18.549003   21.557016   22.330107 H          1 MOL1         0.0833
      21    C8      19.848088   20.302445   21.152022 C.3        1 MOL1        -0.1684
      22    H14     19.860590   21.097879   20.394303 H          1 MOL1         0.0833
      23    H15     19.066210   19.606454   20.822067 H          1 MOL1         0.0833
      24    O1      20.416916   19.313014   25.652589 O.3        1 MOL1        -0.5508
      25    H16     21.241895   18.884153   25.962308 H          1 MOL1         0.3780
@<TRIPOS>BOND
    1     1     2    1
    2     1     3    1
    3     1     4    1
    4     4     5    1
    5     4     6    1
    6     4     7    1
    7     7     8    1
    8     7     9    1
    9     7    10    1
   10    10    11    1
   11    10    12    1
   12    10    13    1
   13    13    14    1
   14    13    15    1
   15    15    16    1
   16    15    17    1
   17    15    18    1
   18    18    19    1
   19    18    20    1
   20     1    21    1
   21    18    21    1
   22    21    22    1
   23    21    23    1
   24    13    24    1
   25    24    25    1
@<TRIPOS>SUBSTRUCTURE
       1 MOL1            1 RESIDUE      1      MOL     
@<SCITEGIC>MOL_PROPERTY
VM2 Rank
SciTegic.value.IntegerValue
3

@<SCITEGIC>MOL_PROPERTY
Conf_Id
SciTegic.value.IntegerValue
1603

@<SCITEGIC>MOL_PROPERTY
Probability
SciTegic.value.DoubleValue
4.31

@<SCITEGIC>MOL_PROPERTY
Sum Probability
SciTegic.value.DoubleValue
13.43

@<SCITEGIC>MOL_PROPERTY
Delta G
SciTegic.value.DoubleValue
0.051

@<SCITEGIC>MOL_PROPERTY
G
SciTegic.value.DoubleValue
62.126

@<SCITEGIC>MOL_PROPERTY
E
SciTegic.value.DoubleValue
29.342

@<SCITEGIC>MOL_PROPERTY
-TS
SciTegic.value.DoubleValue
32.784

@<SCITEGIC>MOL_PROPERTY
U+W
SciTegic.value.DoubleValue
8.774

@<SCITEGIC>MOL_PROPERTY
U
SciTegic.value.DoubleValue
10.905

@<SCITEGIC>MOL_PROPERTY
W
SciTegic.value.DoubleValue
-2.131

@<SCITEGIC>MOL_PROPERTY
W(PB)
SciTegic.value.DoubleValue
-4.281

@<SCITEGIC>MOL_PROPERTY
W(SA)
SciTegic.value.DoubleValue
2.150

@<SCITEGIC>MOL_PROPERTY
Valence
SciTegic.value.DoubleValue
16.378

@<SCITEGIC>MOL_PROPERTY
Coulomb
SciTegic.value.DoubleValue
-8.448

@<SCITEGIC>MOL_PROPERTY
VdW
SciTegic.value.DoubleValue
2.976

@<SCITEGIC>MOL_PROPERTY
VdW6
SciTegic.value.DoubleValue
-12.570

@<SCITEGIC>MOL_PROPERTY
VdW12
SciTegic.value.DoubleValue
15.546

@<SCITEGIC>MOL_PROPERTY
Bond
SciTegic.value.DoubleValue
0.439

@<SCITEGIC>MOL_PROPERTY
Angle
SciTegic.value.DoubleValue
5.049

@<SCITEGIC>MOL_PROPERTY
Pdih
SciTegic.value.DoubleValue
10.889

@<SCITEGIC>MOL_PROPERTY
Idih
SciTegic.value.DoubleValue
0.000

@<SCITEGIC>MOL_PROPERTY
Tether
SciTegic.value.DoubleValue
0.000

@<TRIPOS>MOLECULE
guest-s17_vm2.mol2 : vm2 ligand conformer 4
          25          25           1
SMALL
USER_CHARGES
 
@<TRIPOS>ATOM
       1    C1      21.243014   19.624539   21.138550 C.3        1 MOL1        -0.1684
       2    H1      21.900214   20.078084   21.888991 H          1 MOL1         0.0833
       3    H2      21.724918   19.858412   20.179299 H          1 MOL1         0.0833
       4    C2      21.234981   18.079489   21.276822 C.3        1 MOL1        -0.1684
       5    H3      20.974285   17.657994   20.296326 H          1 MOL1         0.0833
       6    H4      22.257109   17.734909   21.484413 H          1 MOL1         0.0833
       7    C3      20.265282   17.462814   22.316184 C.3        1 MOL1        -0.1684
       8    H5      20.321553   16.370999   22.209356 H          1 MOL1         0.0833
       9    H6      19.228291   17.711987   22.063614 H          1 MOL1         0.0833
      10    C4      20.555968   17.796316   23.802522 C.3        1 MOL1        -0.1760
      11    H7      19.857996   17.211685   24.416624 H          1 MOL1         0.0833
      12    H8      21.559419   17.434616   24.061180 H          1 MOL1         0.0833
      13    C5      20.446073   19.280312   24.228386 C.3        1 MOL1         0.1219
      14    H9      21.342893   19.815276   23.894925 H          1 MOL1         0.0790
      15    C6      19.188383   20.012774   23.693020 C.3        1 MOL1        -0.1760
      16    H10     18.400580   19.294981   23.434978 H          1 MOL1         0.0833
      17    H11     18.762400   20.622434   24.500965 H          1 MOL1         0.0833
      18    C7      19.460415   20.967802   22.500519 C.3        1 MOL1        -0.1684
      19    H12     20.233792   21.694574   22.784513 H          1 MOL1         0.0833
      20    H13     18.549675   21.558256   22.330817 H          1 MOL1         0.0833
      21    C8      19.848356   20.303170   21.153314 C.3        1 MOL1        -0.1684
      22    H14     19.860574   21.098735   20.395715 H          1 MOL1         0.0833
      23    H15     19.066567   19.607095   20.823299 H          1 MOL1         0.0833
      24    O1      20.421528   19.315783   25.650682 O.3        1 MOL1        -0.5508
      25    H16     20.428073   20.261268   25.908550 H          1 MOL1         0.3780
@<TRIPOS>BOND
    1     1     2    1
    2     1     3    1
    3     1     4    1
    4     4     5    1
    5     4     6    1
    6     4     7    1
    7     7     8    1
    8     7     9    1
    9     7    10    1
   10    10    11    1
   11    10    12    1
   12    10    13    1
   13    13    14    1
   14    13    15    1
   15    15    16    1
   16    15    17    1
   17    15    18    1
   18    18    19    1
   19    18    20    1
   20     1    21    1
   21    18    21    1
   22    21    22    1
   23    21    23    1
   24    13    24    1
   25    24    25    1
@<TRIPOS>SUBSTRUCTURE
       1 MOL1            1 RESIDUE      1      MOL     
@<SCITEGIC>MOL_PROPERTY
VM2 Rank
SciTegic.value.IntegerValue
4

@<SCITEGIC>MOL_PROPERTY
Conf_Id
SciTegic.value.IntegerValue
1922

@<SCITEGIC>MOL_PROPERTY
Probability
SciTegic.value.DoubleValue
4.31

@<SCITEGIC>MOL_PROPERTY
Sum Probability
SciTegic.value.DoubleValue
17.73

@<SCITEGIC>MOL_PROPERTY
Delta G
SciTegic.value.DoubleValue
0.051

@<SCITEGIC>MOL_PROPERTY
G
SciTegic.value.DoubleValue
62.126

@<SCITEGIC>MOL_PROPERTY
E
SciTegic.value.DoubleValue
29.319

@<SCITEGIC>MOL_PROPERTY
-TS
SciTegic.value.DoubleValue
32.807

@<SCITEGIC>MOL_PROPERTY
U+W
SciTegic.value.DoubleValue
8.752

@<SCITEGIC>MOL_PROPERTY
U
SciTegic.value.DoubleValue
10.865

@<SCITEGIC>MOL_PROPERTY
W
SciTegic.value.DoubleValue
-2.113

@<SCITEGIC>MOL_PROPERTY
W(PB)
SciTegic.value.DoubleValue
-4.265

@<SCITEGIC>MOL_PROPERTY
W(SA)
SciTegic.value.DoubleValue
2.152

@<SCITEGIC>MOL_PROPERTY
Valence
SciTegic.value.DoubleValue
16.387

@<SCITEGIC>MOL_PROPERTY
Coulomb
SciTegic.value.DoubleValue
-8.479

@<SCITEGIC>MOL_PROPERTY
VdW
SciTegic.value.DoubleValue
2.957

@<SCITEGIC>MOL_PROPERTY
VdW6
SciTegic.value.DoubleValue
-12.577

@<SCITEGIC>MOL_PROPERTY
VdW12
SciTegic.value.DoubleValue
15.534

@<SCITEGIC>MOL_PROPERTY
Bond
SciTegic.value.DoubleValue
0.441

@<SCITEGIC>MOL_PROPERTY
Angle
SciTegic.value.DoubleValue
5.030

@<SCITEGIC>MOL_PROPERTY
Pdih
SciTegic.value.DoubleValue
10.916

@<SCITEGIC>MOL_PROPERTY
Idih
SciTegic.value.DoubleValue
0.000

@<SCITEGIC>MOL_PROPERTY
Tether
SciTegic.value.DoubleValue
0.000

@<TRIPOS>MOLECULE
guest-s17_vm2.mol2 : vm2 ligand conformer 5
          25          25           1
SMALL
USER_CHARGES
 
@<TRIPOS>ATOM
       1    C1      20.755827   19.241490   20.800562 C.3        1 MOL1        -0.1684
       2    H1      20.701835   19.067023   19.717258 H          1 MOL1         0.0833
       3    H2      21.817467   19.427439   21.008208 H          1 MOL1         0.0833
       4    C2      20.266200   17.950847   21.506568 C.3        1 MOL1        -0.1684
       5    H3      19.204096   18.030579   21.763909 H          1 MOL1         0.0833
       6    H4      20.313678   17.125631   20.782842 H          1 MOL1         0.0833
       7    C3      21.100344   17.525511   22.740627 C.3        1 MOL1        -0.1684
       8    H5      22.042113   17.093601   22.375418 H          1 MOL1         0.0833
       9    H6      20.584855   16.705048   23.257120 H          1 MOL1         0.0833
      10    C4      21.465957   18.639621   23.758502 C.3        1 MOL1        -0.1760
      11    H7      22.104049   18.186207   24.528350 H          1 MOL1         0.0833
      12    H8      22.106848   19.387334   23.279073 H          1 MOL1         0.0833
      13    C5      20.299687   19.346100   24.492396 C.3        1 MOL1         0.1219
      14    H9      20.756088   20.033753   25.218813 H          1 MOL1         0.0790
      15    C6      19.329754   20.186799   23.626034 C.3        1 MOL1        -0.1760
      16    H10     18.553189   19.555575   23.180431 H          1 MOL1         0.0833
      17    H11     18.787307   20.846688   24.315719 H          1 MOL1         0.0833
      18    C7      19.992296   21.075310   22.539600 C.3        1 MOL1        -0.1684
      19    H12     21.029341   21.319674   22.802929 H          1 MOL1         0.0833
      20    H13     19.464068   22.038605   22.533748 H          1 MOL1         0.0833
      21    C8      19.909540   20.506043   21.099411 C.3        1 MOL1        -0.1684
      22    H14     20.235956   21.296068   20.409382 H          1 MOL1         0.0833
      23    H15     18.859087   20.309518   20.844935 H          1 MOL1         0.0833
      24    O1      19.544395   18.371278   25.196300 O.3        1 MOL1        -0.5508
      25    H16     19.250570   17.729677   24.518564 H          1 MOL1         0.3780
@<TRIPOS>BOND
    1     1     2    1
    2     1     3    1
    3     1     4    1
    4     4     5    1
    5     4     6    1
    6     4     7    1
    7     7     8    1
    8     7     9    1
    9     7    10    1
   10    10    11    1
   11    10    12    1
   12    10    13    1
   13    13    14    1
   14    13    15    1
   15    15    16    1
   16    15    17    1
   17    15    18    1
   18    18    19    1
   19    18    20    1
   20     1    21    1
   21    18    21    1
   22    21    22    1
   23    21    23    1
   24    13    24    1
   25    24    25    1
@<TRIPOS>SUBSTRUCTURE
       1 MOL1            1 RESIDUE      1      MOL     
@<SCITEGIC>MOL_PROPERTY
VM2 Rank
SciTegic.value.IntegerValue
5

@<SCITEGIC>MOL_PROPERTY
Conf_Id
SciTegic.value.IntegerValue
1877

@<SCITEGIC>MOL_PROPERTY
Probability
SciTegic.value.DoubleValue
3.84

@<SCITEGIC>MOL_PROPERTY
Sum Probability
SciTegic.value.DoubleValue
21.57

@<SCITEGIC>MOL_PROPERTY
Delta G
SciTegic.value.DoubleValue
0.120

@<SCITEGIC>MOL_PROPERTY
G
SciTegic.value.DoubleValue
62.195

@<SCITEGIC>MOL_PROPERTY
E
SciTegic.value.DoubleValue
29.408

@<SCITEGIC>MOL_PROPERTY
-TS
SciTegic.value.DoubleValue
32.788

@<SCITEGIC>MOL_PROPERTY
U+W
SciTegic.value.DoubleValue
8.840

@<SCITEGIC>MOL_PROPERTY
U
SciTegic.value.DoubleValue
10.304

@<SCITEGIC>MOL_PROPERTY
W
SciTegic.value.DoubleValue
-1.464

@<SCITEGIC>MOL_PROPERTY
W(PB)
SciTegic.value.DoubleValue
-3.587

@<SCITEGIC>MOL_PROPERTY
W(SA)
SciTegic.value.DoubleValue
2.123

@<SCITEGIC>MOL_PROPERTY
Valence
SciTegic.value.DoubleValue
17.199

@<SCITEGIC>MOL_PROPERTY
Coulomb
SciTegic.value.DoubleValue
-9.376

@<SCITEGIC>MOL_PROPERTY
VdW
SciTegic.value.DoubleValue
2.481

@<SCITEGIC>MOL_PROPERTY
VdW6
SciTegic.value.DoubleValue
-13.059

@<SCITEGIC>MOL_PROPERTY
VdW12
SciTegic.value.DoubleValue
15.540

@<SCITEGIC>MOL_PROPERTY
Bond
SciTegic.value.DoubleValue
0.429

@<SCITEGIC>MOL_PROPERTY
Angle
SciTegic.value.DoubleValue
5.594

@<SCITEGIC>MOL_PROPERTY
Pdih
SciTegic.value.DoubleValue
11.176

@<SCITEGIC>MOL_PROPERTY
Idih
SciTegic.value.DoubleValue
0.000

@<SCITEGIC>MOL_PROPERTY
Tether
SciTegic.value.DoubleValue
0.000

@<TRIPOS>MOLECULE
guest-s17_vm2.mol2 : vm2 ligand conformer 6
          25          25           1
SMALL
USER_CHARGES
 
@<TRIPOS>ATOM
       1    C1      20.650041   19.497300   20.800106 C.3        1 MOL1        -0.1684
       2    H1      20.490603   19.576207   19.716014 H          1 MOL1         0.0833
       3    H2      21.526704   20.124501   21.007122 H          1 MOL1         0.0833
       4    C2      20.956957   18.008517   21.106594 C.3        1 MOL1        -0.1684
       5    H3      20.080728   17.396489   20.852666 H          1 MOL1         0.0833
       6    H4      21.750778   17.683865   20.420097 H          1 MOL1         0.0833
       7    C3      21.417028   17.674835   22.549524 C.3        1 MOL1        -0.1684
       8    H5      22.317913   18.243809   22.812571 H          1 MOL1         0.0833
       9    H6      21.733133   16.622660   22.549316 H          1 MOL1         0.0833
      10    C4      20.316218   17.830781   23.632416 C.3        1 MOL1        -0.1760
      11    H7      19.322773   17.717944   23.184763 H          1 MOL1         0.0833
      12    H8      20.404320   16.984479   24.326233 H          1 MOL1         0.0833
      13    C5      20.395056   19.115755   24.493091 C.3        1 MOL1         0.1219
      14    H9      21.203382   18.962065   25.222364 H          1 MOL1         0.0790
      15    C6      20.711511   20.439166   23.753946 C.3        1 MOL1        -0.1760
      16    H10     20.833930   21.215516   24.520566 H          1 MOL1         0.0833
      17    H11     21.695219   20.369282   23.277394 H          1 MOL1         0.0833
      18    C7      19.663669   20.955391   22.730951 C.3        1 MOL1        -0.1684
      19    H12     18.715982   21.165890   23.244015 H          1 MOL1         0.0833
      20    H13     20.017410   21.927874   22.362176 H          1 MOL1         0.0833
      21    C8      19.384900   20.056844   21.500297 C.3        1 MOL1        -0.1684
      22    H14     18.831900   20.666171   20.772337 H          1 MOL1         0.0833
      23    H15     18.696081   19.245097   21.759611 H          1 MOL1         0.0833
      24    O1      19.168620   19.264411   25.193075 O.3        1 MOL1        -0.5508
      25    H16     18.507035   19.501955   24.512496 H          1 MOL1         0.3780
@<TRIPOS>BOND
    1     1     2    1
    2     1     3    1
    3     1     4    1
    4     4     5    1
    5     4     6    1
    6     4     7    1
    7     7     8    1
    8     7     9    1
    9     7    10    1
   10    10    11    1
   11    10    12    1
   12    10    13    1
   13    13    14    1
   14    13    15    1
   15    15    16    1
   16    15    17    1
   17    15    18    1
   18    18    19    1
   19    18    20    1
   20     1    21    1
   21    18    21    1
   22    21    22    1
   23    21    23    1
   24    13    24    1
   25    24    25    1
@<TRIPOS>SUBSTRUCTURE
       1 MOL1            1 RESIDUE      1      MOL     
@<SCITEGIC>MOL_PROPERTY
VM2 Rank
SciTegic.value.IntegerValue
6

@<SCITEGIC>MOL_PROPERTY
Conf_Id
SciTegic.value.IntegerValue
85

@<SCITEGIC>MOL_PROPERTY
Probability
SciTegic.value.DoubleValue
3.69

@<SCITEGIC>MOL_PROPERTY
Sum Probability
SciTegic.value.DoubleValue
25.26

@<SCITEGIC>MOL_PROPERTY
Delta G
SciTegic.value.DoubleValue
0.144

@<SCITEGIC>MOL_PROPERTY
G
SciTegic.value.DoubleValue
62.220

@<SCITEGIC>MOL_PROPERTY
E
SciTegic.value.DoubleValue
29.432

@<SCITEGIC>MOL_PROPERTY
-TS
SciTegic.value.DoubleValue
32.788

@<SCITEGIC>MOL_PROPERTY
U+W
SciTegic.value.DoubleValue
8.864

@<SCITEGIC>MOL_PROPERTY
U
SciTegic.value.DoubleValue
10.304

@<SCITEGIC>MOL_PROPERTY
W
SciTegic.value.DoubleValue
-1.439

@<SCITEGIC>MOL_PROPERTY
W(PB)
SciTegic.value.DoubleValue
-3.553

@<SCITEGIC>MOL_PROPERTY
W(SA)
SciTegic.value.DoubleValue
2.114

@<SCITEGIC>MOL_PROPERTY
Valence
SciTegic.value.DoubleValue
17.199

@<SCITEGIC>MOL_PROPERTY
Coulomb
SciTegic.value.DoubleValue
-9.376

@<SCITEGIC>MOL_PROPERTY
VdW
SciTegic.value.DoubleValue
2.481

@<SCITEGIC>MOL_PROPERTY
VdW6
SciTegic.value.DoubleValue
-13.059

@<SCITEGIC>MOL_PROPERTY
VdW12
SciTegic.value.DoubleValue
15.540

@<SCITEGIC>MOL_PROPERTY
Bond
SciTegic.value.DoubleValue
0.429

@<SCITEGIC>MOL_PROPERTY
Angle
SciTegic.value.DoubleValue
5.594

@<SCITEGIC>MOL_PROPERTY
Pdih
SciTegic.value.DoubleValue
11.176

@<SCITEGIC>MOL_PROPERTY
Idih
SciTegic.value.DoubleValue
0.000

@<SCITEGIC>MOL_PROPERTY
Tether
SciTegic.value.DoubleValue
0.000

@<TRIPOS>MOLECULE
guest-s17_vm2.mol2 : vm2 ligand conformer 7
          25          25           1
SMALL
USER_CHARGES
 
@<TRIPOS>ATOM
       1    C1      21.242694   19.623392   21.138987 C.3        1 MOL1        -0.1684
       2    H1      21.727014   19.859203   20.181436 H          1 MOL1         0.0833
       3    H2      21.898205   20.074047   21.892715 H          1 MOL1         0.0833
       4    C2      21.231839   18.078494   21.273926 C.3        1 MOL1        -0.1684
       5    H3      20.966079   17.659153   20.293863 H          1 MOL1         0.0833
       6    H4      22.253962   17.731222   21.477038 H          1 MOL1         0.0833
       7    C3      20.264908   17.463962   22.316773 C.3        1 MOL1        -0.1684
       8    H5      20.319505   16.372047   22.209691 H          1 MOL1         0.0833
       9    H6      19.227281   17.714470   22.068010 H          1 MOL1         0.0833
      10    C4      20.562430   17.797459   23.801470 C.3        1 MOL1        -0.1760
      11    H7      19.873715   17.202074   24.415281 H          1 MOL1         0.0833
      12    H8      21.570807   17.442948   24.051630 H          1 MOL1         0.0833
      13    C5      20.445652   19.280882   24.230270 C.3        1 MOL1         0.1219
      14    H9      21.341740   19.821112   23.903580 H          1 MOL1         0.0790
      15    C6      19.189232   20.015117   23.694366 C.3        1 MOL1        -0.1760
      16    H10     18.396627   19.301130   23.440284 H          1 MOL1         0.0833
      17    H11     18.773119   20.632355   24.502127 H          1 MOL1         0.0833
      18    C7      19.461338   20.967568   22.499651 C.3        1 MOL1        -0.1684
      19    H12     20.235796   21.693416   22.783259 H          1 MOL1         0.0833
      20    H13     18.551437   21.559320   22.330116 H          1 MOL1         0.0833
      21    C8      19.848316   20.302234   21.152736 C.3        1 MOL1        -0.1684
      22    H14     19.860916   21.097397   20.394730 H          1 MOL1         0.0833
      23    H15     19.066147   19.606369   20.823192 H          1 MOL1         0.0833
      24    O1      20.417592   19.313893   25.651820 O.3        1 MOL1        -0.5508
      25    H16     19.603120   18.843221   25.923839 H          1 MOL1         0.3780
@<TRIPOS>BOND
    1     1     2    1
    2     1     3    1
    3     1     4    1
    4     4     5    1
    5     4     6    1
    6     4     7    1
    7     7     8    1
    8     7     9    1
    9     7    10    1
   10    10    11    1
   11    10    12    1
   12    10    13    1
   13    13    14    1
   14    13    15    1
   15    15    16    1
   16    15    17    1
   17    15    18    1
   18    18    19    1
   19    18    20    1
   20     1    21    1
   21    18    21    1
   22    21    22    1
   23    21    23    1
   24    13    24    1
   25    24    25    1
@<TRIPOS>SUBSTRUCTURE
       1 MOL1            1 RESIDUE      1      MOL     
@<SCITEGIC>MOL_PROPERTY
VM2 Rank
SciTegic.value.IntegerValue
7

@<SCITEGIC>MOL_PROPERTY
Conf_Id
SciTegic.value.IntegerValue
1629

@<SCITEGIC>MOL_PROPERTY
Probability
SciTegic.value.DoubleValue
3.60

@<SCITEGIC>MOL_PROPERTY
Sum Probability
SciTegic.value.DoubleValue
28.86

@<SCITEGIC>MOL_PROPERTY
Delta G
SciTegic.value.DoubleValue
0.159

@<SCITEGIC>MOL_PROPERTY
G
SciTegic.value.DoubleValue
62.234

@<SCITEGIC>MOL_PROPERTY
E
SciTegic.value.DoubleValue
29.468

@<SCITEGIC>MOL_PROPERTY
-TS
SciTegic.value.DoubleValue
32.766

@<SCITEGIC>MOL_PROPERTY
U+W
SciTegic.value.DoubleValue
8.900

@<SCITEGIC>MOL_PROPERTY
U
SciTegic.value.DoubleValue
10.935

@<SCITEGIC>MOL_PROPERTY
W
SciTegic.value.DoubleValue
-2.035

@<SCITEGIC>MOL_PROPERTY
W(PB)
SciTegic.value.DoubleValue
-4.170

@<SCITEGIC>MOL_PROPERTY
W(SA)
SciTegic.value.DoubleValue
2.136

@<SCITEGIC>MOL_PROPERTY
Valence
SciTegic.value.DoubleValue
16.758

@<SCITEGIC>MOL_PROPERTY
Coulomb
SciTegic.value.DoubleValue
-8.731

@<SCITEGIC>MOL_PROPERTY
VdW
SciTegic.value.DoubleValue
2.908

@<SCITEGIC>MOL_PROPERTY
VdW6
SciTegic.value.DoubleValue
-12.597

@<SCITEGIC>MOL_PROPERTY
VdW12
SciTegic.value.DoubleValue
15.505

@<SCITEGIC>MOL_PROPERTY
Bond
SciTegic.value.DoubleValue
0.434

@<SCITEGIC>MOL_PROPERTY
Angle
SciTegic.value.DoubleValue
5.070

@<SCITEGIC>MOL_PROPERTY
Pdih
SciTegic.value.DoubleValue
11.254

@<SCITEGIC>MOL_PROPERTY
Idih
SciTegic.value.DoubleValue
0.000

@<SCITEGIC>MOL_PROPERTY
Tether
SciTegic.value.DoubleValue
0.000

@<TRIPOS>MOLECULE
guest-s17_vm2.mol2 : vm2 ligand conformer 8
          25          25           1
SMALL
USER_CHARGES
 
@<TRIPOS>ATOM
       1    C1      21.264794   19.570282   21.139174 C.3        1 MOL1        -0.1684
       2    H1      22.045395   19.719151   21.893756 H          1 MOL1         0.0833
       3    H2      21.775847   19.741603   20.181808 H          1 MOL1         0.0833
       4    C2      20.759494   18.104135   21.159010 C.3        1 MOL1        -0.1684
       5    H3      19.715079   18.041002   20.827611 H          1 MOL1         0.0833
       6    H4      21.332493   17.547379   20.404878 H          1 MOL1         0.0833
       7    C3      20.953906   17.366682   22.509924 C.3        1 MOL1        -0.1684
       8    H5      22.014182   17.402945   22.795536 H          1 MOL1         0.0833
       9    H6      20.729793   16.303934   22.345085 H          1 MOL1         0.0833
      10    C4      20.085338   17.853131   23.700514 C.3        1 MOL1        -0.1760
      11    H7      19.020567   17.795767   23.444525 H          1 MOL1         0.0833
      12    H8      20.226261   17.126456   24.512115 H          1 MOL1         0.0833
      13    C5      20.452777   19.263518   24.230303 C.3        1 MOL1         0.1219
      14    H9      21.468923   19.514102   23.904418 H          1 MOL1         0.0790
      15    C6      19.486670   20.392396   23.794059 C.3        1 MOL1        -0.1760
      16    H10     18.577421   20.328813   24.406268 H          1 MOL1         0.0833
      17    H11     19.947942   21.357563   24.040560 H          1 MOL1         0.0833
      18    C7      19.043601   20.410443   22.308317 C.3        1 MOL1        -0.1684
      19    H12     18.309936   21.220253   22.195772 H          1 MOL1         0.0833
      20    H13     18.487999   19.498124   22.062780 H          1 MOL1         0.0833
      21    C8      20.163950   20.655151   21.266647 C.3        1 MOL1        -0.1684
      22    H14     20.640291   21.624629   21.466147 H          1 MOL1         0.0833
      23    H15     19.681526   20.758868   20.285062 H          1 MOL1         0.0833
      24    O1      20.453470   19.227262   25.652052 O.3        1 MOL1        -0.5508
      25    H16     19.544321   18.985029   25.923453 H          1 MOL1         0.3780
@<TRIPOS>BOND
    1     1     2    1
    2     1     3    1
    3     1     4    1
    4     4     5    1
    5     4     6    1
    6     4     7    1
    7     7     8    1
    8     7     9    1
    9     7    10    1
   10    10    11    1
   11    10    12    1
   12    10    13    1
   13    13    14    1
   14    13    15    1
   15    15    16    1
   16    15    17    1
   17    15    18    1
   18    18    19    1
   19    18    20    1
   20     1    21    1
   21    18    21    1
   22    21    22    1
   23    21    23    1
   24    13    24    1
   25    24    25    1
@<TRIPOS>SUBSTRUCTURE
       1 MOL1            1 RESIDUE      1      MOL     
@<SCITEGIC>MOL_PROPERTY
VM2 Rank
SciTegic.value.IntegerValue
8

@<SCITEGIC>MOL_PROPERTY
Conf_Id
SciTegic.value.IntegerValue
1771

@<SCITEGIC>MOL_PROPERTY
Probability
SciTegic.value.DoubleValue
3.51

@<SCITEGIC>MOL_PROPERTY
Sum Probability
SciTegic.value.DoubleValue
32.37

@<SCITEGIC>MOL_PROPERTY
Delta G
SciTegic.value.DoubleValue
0.174

@<SCITEGIC>MOL_PROPERTY
G
SciTegic.value.DoubleValue
62.249

@<SCITEGIC>MOL_PROPERTY
E
SciTegic.value.DoubleValue
29.482

@<SCITEGIC>MOL_PROPERTY
-TS
SciTegic.value.DoubleValue
32.767

@<SCITEGIC>MOL_PROPERTY
U+W
SciTegic.value.DoubleValue
8.915

@<SCITEGIC>MOL_PROPERTY
U
SciTegic.value.DoubleValue
10.935

@<SCITEGIC>MOL_PROPERTY
W
SciTegic.value.DoubleValue
-2.020

@<SCITEGIC>MOL_PROPERTY
W(PB)
SciTegic.value.DoubleValue
-4.135

@<SCITEGIC>MOL_PROPERTY
W(SA)
SciTegic.value.DoubleValue
2.115

@<SCITEGIC>MOL_PROPERTY
Valence
SciTegic.value.DoubleValue
16.757

@<SCITEGIC>MOL_PROPERTY
Coulomb
SciTegic.value.DoubleValue
-8.731

@<SCITEGIC>MOL_PROPERTY
VdW
SciTegic.value.DoubleValue
2.908

@<SCITEGIC>MOL_PROPERTY
VdW6
SciTegic.value.DoubleValue
-12.597

@<SCITEGIC>MOL_PROPERTY
VdW12
SciTegic.value.DoubleValue
15.505

@<SCITEGIC>MOL_PROPERTY
Bond
SciTegic.value.DoubleValue
0.434

@<SCITEGIC>MOL_PROPERTY
Angle
SciTegic.value.DoubleValue
5.070

@<SCITEGIC>MOL_PROPERTY
Pdih
SciTegic.value.DoubleValue
11.254

@<SCITEGIC>MOL_PROPERTY
Idih
SciTegic.value.DoubleValue
0.000

@<SCITEGIC>MOL_PROPERTY
Tether
SciTegic.value.DoubleValue
0.000

@<TRIPOS>MOLECULE
guest-s17_vm2.mol2 : vm2 ligand conformer 9
          25          25           1
SMALL
USER_CHARGES
 
@<TRIPOS>ATOM
       1    C1      20.080300   19.169743   20.750417 C.3        1 MOL1        -0.1684
       2    H1      19.010752   18.995256   20.924166 H          1 MOL1         0.0833
       3    H2      20.184934   19.240708   19.659123 H          1 MOL1         0.0833
       4    C2      20.918545   17.947067   21.206909 C.3        1 MOL1        -0.1684
       5    H3      20.629989   17.092480   20.579816 H          1 MOL1         0.0833
       6    H4      21.978847   18.129304   20.984707 H          1 MOL1         0.0833
       7    C3      20.770575   17.514341   22.688778 C.3        1 MOL1        -0.1684
       8    H5      21.306470   16.561771   22.799959 H          1 MOL1         0.0833
       9    H6      19.723534   17.282064   22.919941 H          1 MOL1         0.0833
      10    C4      21.372154   18.510983   23.717266 C.3        1 MOL1        -0.1760
      11    H7      21.909670   17.933723   24.481714 H          1 MOL1         0.0833
      12    H8      22.151286   19.119622   23.246540 H          1 MOL1         0.0833
      13    C5      20.359528   19.424433   24.452345 C.3        1 MOL1         0.1219
      14    H9      20.920756   20.248593   24.915286 H          1 MOL1         0.0790
      15    C6      19.224465   20.035356   23.596826 C.3        1 MOL1        -0.1760
      16    H10     18.614175   19.244188   23.148404 H          1 MOL1         0.0833
      17    H11     18.545882   20.559244   24.283086 H          1 MOL1         0.0833
      18    C7      19.655471   21.057886   22.514102 C.3        1 MOL1        -0.1684
      19    H12     18.740224   21.481732   22.078686 H          1 MOL1         0.0833
      20    H13     20.173003   21.899422   22.994300 H          1 MOL1         0.0833
      21    C8      20.531249   20.526405   21.350931 C.3        1 MOL1        -0.1684
      22    H14     21.585135   20.483808   21.648293 H          1 MOL1         0.0833
      23    H15     20.501651   21.280735   20.552726 H          1 MOL1         0.0833
      24    O1      19.751714   18.656786   25.482426 O.3        1 MOL1        -0.5508
      25    H16     19.354158   17.879970   25.039582 H          1 MOL1         0.3780
@<TRIPOS>BOND
    1     1     2    1
    2     1     3    1
    3     1     4    1
    4     4     5    1
    5     4     6    1
    6     4     7    1
    7     7     8    1
    8     7     9    1
    9     7    10    1
   10    10    11    1
   11    10    12    1
   12    10    13    1
   13    13    14    1
   14    13    15    1
   15    15    16    1
   16    15    17    1
   17    15    18    1
   18    18    19    1
   19    18    20    1
   20     1    21    1
   21    18    21    1
   22    21    22    1
   23    21    23    1
   24    13    24    1
   25    24    25    1
@<TRIPOS>SUBSTRUCTURE
       1 MOL1            1 RESIDUE      1      MOL     
@<SCITEGIC>MOL_PROPERTY
VM2 Rank
SciTegic.value.IntegerValue
9

@<SCITEGIC>MOL_PROPERTY
Conf_Id
SciTegic.value.IntegerValue
1545

@<SCITEGIC>MOL_PROPERTY
Probability
SciTegic.value.DoubleValue
3.33

@<SCITEGIC>MOL_PROPERTY
Sum Probability
SciTegic.value.DoubleValue
35.70

@<SCITEGIC>MOL_PROPERTY
Delta G
SciTegic.value.DoubleValue
0.204

@<SCITEGIC>MOL_PROPERTY
G
SciTegic.value.DoubleValue
62.280

@<SCITEGIC>MOL_PROPERTY
E
SciTegic.value.DoubleValue
29.544

@<SCITEGIC>MOL_PROPERTY
-TS
SciTegic.value.DoubleValue
32.736

@<SCITEGIC>MOL_PROPERTY
U+W
SciTegic.value.DoubleValue
8.976

@<SCITEGIC>MOL_PROPERTY
U
SciTegic.value.DoubleValue
10.541

@<SCITEGIC>MOL_PROPERTY
W
SciTegic.value.DoubleValue
-1.565

@<SCITEGIC>MOL_PROPERTY
W(PB)
SciTegic.value.DoubleValue
-3.702

@<SCITEGIC>MOL_PROPERTY
W(SA)
SciTegic.value.DoubleValue
2.137

@<SCITEGIC>MOL_PROPERTY
Valence
SciTegic.value.DoubleValue
17.202

@<SCITEGIC>MOL_PROPERTY
Coulomb
SciTegic.value.DoubleValue
-9.327

@<SCITEGIC>MOL_PROPERTY
VdW
SciTegic.value.DoubleValue
2.666

@<SCITEGIC>MOL_PROPERTY
VdW6
SciTegic.value.DoubleValue
-12.816

@<SCITEGIC>MOL_PROPERTY
VdW12
SciTegic.value.DoubleValue
15.482

@<SCITEGIC>MOL_PROPERTY
Bond
SciTegic.value.DoubleValue
0.428

@<SCITEGIC>MOL_PROPERTY
Angle
SciTegic.value.DoubleValue
5.357

@<SCITEGIC>MOL_PROPERTY
Pdih
SciTegic.value.DoubleValue
11.417

@<SCITEGIC>MOL_PROPERTY
Idih
SciTegic.value.DoubleValue
0.000

@<SCITEGIC>MOL_PROPERTY
Tether
SciTegic.value.DoubleValue
0.000

@<TRIPOS>MOLECULE
guest-s17_vm2.mol2 : vm2 ligand conformer 10
          25          25           1
SMALL
USER_CHARGES
 
@<TRIPOS>ATOM
       1    C1      20.153125   19.066535   20.748457 C.3        1 MOL1        -0.1684
       2    H1      20.291434   19.093264   19.658932 H          1 MOL1         0.0833
       3    H2      19.296427   18.400156   20.911471 H          1 MOL1         0.0833
       4    C2      21.446776   18.477400   21.368045 C.3        1 MOL1        -0.1684
       5    H3      21.991490   17.942093   20.578263 H          1 MOL1         0.0833
       6    H4      22.126942   19.280496   21.673540 H          1 MOL1         0.0833
       7    C3      21.226040   17.475583   22.529962 C.3        1 MOL1        -0.1684
       8    H5      22.188469   17.284784   23.023862 H          1 MOL1         0.0833
       9    H6      20.921637   16.515185   22.091915 H          1 MOL1         0.0833
      10    C4      20.167880   17.855465   23.597486 C.3        1 MOL1        -0.1760
      11    H7      19.178977   17.943930   23.135179 H          1 MOL1         0.0833
      12    H8      20.082142   17.002787   24.284126 H          1 MOL1         0.0833
      13    C5      20.478363   19.105054   24.455179 C.3        1 MOL1         0.1219
      14    H9      21.458004   18.958233   24.931920 H          1 MOL1         0.0790
      15    C6      20.505557   20.467418   23.718036 C.3        1 MOL1        -0.1760
      16    H10     20.436167   21.255319   24.480225 H          1 MOL1         0.0833
      17    H11     21.487848   20.625331   23.260613 H          1 MOL1         0.0833
      18    C7      19.379794   20.700715   22.673426 C.3        1 MOL1        -0.1684
      19    H12     19.042888   21.741132   22.778120 H          1 MOL1         0.0833
      20    H13     18.495176   20.090189   22.893410 H          1 MOL1         0.0833
      21    C8      19.818460   20.512924   21.197828 C.3        1 MOL1        -0.1684
      22    H14     20.675235   21.167172   20.986359 H          1 MOL1         0.0833
      23    H15     19.003953   20.880285   20.558725 H          1 MOL1         0.0833
      24    O1      19.488006   19.181906   25.471580 O.3        1 MOL1        -0.5508
      25    H16     18.653948   19.416649   25.016781 H          1 MOL1         0.3780
@<TRIPOS>BOND
    1     1     2    1
    2     1     3    1
    3     1     4    1
    4     4     5    1
    5     4     6    1
    6     4     7    1
    7     7     8    1
    8     7     9    1
    9     7    10    1
   10    10    11    1
   11    10    12    1
   12    10    13    1
   13    13    14    1
   14    13    15    1
   15    15    16    1
   16    15    17    1
   17    15    18    1
   18    18    19    1
   19    18    20    1
   20     1    21    1
   21    18    21    1
   22    21    22    1
   23    21    23    1
   24    13    24    1
   25    24    25    1
@<TRIPOS>SUBSTRUCTURE
       1 MOL1            1 RESIDUE      1      MOL     
@<SCITEGIC>MOL_PROPERTY
VM2 Rank
SciTegic.value.IntegerValue
10

@<SCITEGIC>MOL_PROPERTY
Conf_Id
SciTegic.value.IntegerValue
1062

@<SCITEGIC>MOL_PROPERTY
Probability
SciTegic.value.DoubleValue
3.17

@<SCITEGIC>MOL_PROPERTY
Sum Probability
SciTegic.value.DoubleValue
38.87

@<SCITEGIC>MOL_PROPERTY
Delta G
SciTegic.value.DoubleValue
0.234

@<SCITEGIC>MOL_PROPERTY
G
SciTegic.value.DoubleValue
62.309

@<SCITEGIC>MOL_PROPERTY
E
SciTegic.value.DoubleValue
29.573

@<SCITEGIC>MOL_PROPERTY
-TS
SciTegic.value.DoubleValue
32.736

@<SCITEGIC>MOL_PROPERTY
U+W
SciTegic.value.DoubleValue
9.006

@<SCITEGIC>MOL_PROPERTY
U
SciTegic.value.DoubleValue
10.541

@<SCITEGIC>MOL_PROPERTY
W
SciTegic.value.DoubleValue
-1.536

@<SCITEGIC>MOL_PROPERTY
W(PB)
SciTegic.value.DoubleValue
-3.659

@<SCITEGIC>MOL_PROPERTY
W(SA)
SciTegic.value.DoubleValue
2.123

@<SCITEGIC>MOL_PROPERTY
Valence
SciTegic.value.DoubleValue
17.202

@<SCITEGIC>MOL_PROPERTY
Coulomb
SciTegic.value.DoubleValue
-9.327

@<SCITEGIC>MOL_PROPERTY
VdW
SciTegic.value.DoubleValue
2.666

@<SCITEGIC>MOL_PROPERTY
VdW6
SciTegic.value.DoubleValue
-12.816

@<SCITEGIC>MOL_PROPERTY
VdW12
SciTegic.value.DoubleValue
15.482

@<SCITEGIC>MOL_PROPERTY
Bond
SciTegic.value.DoubleValue
0.428

@<SCITEGIC>MOL_PROPERTY
Angle
SciTegic.value.DoubleValue
5.357

@<SCITEGIC>MOL_PROPERTY
Pdih
SciTegic.value.DoubleValue
11.417

@<SCITEGIC>MOL_PROPERTY
Idih
SciTegic.value.DoubleValue
0.000

@<SCITEGIC>MOL_PROPERTY
Tether
SciTegic.value.DoubleValue
0.000

@<TRIPOS>MOLECULE
guest-s17_vm2.mol2 : vm2 ligand conformer 11
          25          25           1
SMALL
USER_CHARGES
 
@<TRIPOS>ATOM
       1    C1      20.885110   19.438534   20.677192 C.3        1 MOL1        -0.1684
       2    H1      20.083329   19.098509   20.007552 H          1 MOL1         0.0833
       3    H2      21.695960   19.774190   20.016348 H          1 MOL1         0.0833
       4    C2      21.414626   18.231707   21.495571 C.3        1 MOL1        -0.1684
       5    H3      21.847089   17.522471   20.776526 H          1 MOL1         0.0833
       6    H4      22.252251   18.533542   22.137467 H          1 MOL1         0.0833
       7    C3      20.331703   17.472219   22.304821 C.3        1 MOL1        -0.1684
       8    H5      20.519031   16.394459   22.203114 H          1 MOL1         0.0833
       9    H6      19.342474   17.622314   21.857670 H          1 MOL1         0.0833
      10    C4      20.299633   17.791419   23.822255 C.3        1 MOL1        -0.1760
      11    H7      19.373257   17.387597   24.251507 H          1 MOL1         0.0833
      12    H8      21.118689   17.232260   24.293254 H          1 MOL1         0.0833
      13    C5      20.446669   19.275701   24.233385 C.3        1 MOL1         0.1219
      14    H9      21.387657   19.670763   23.831246 H          1 MOL1         0.0790
      15    C6      19.285560   20.204232   23.806733 C.3        1 MOL1        -0.1760
      16    H10     18.347059   19.829697   24.235649 H          1 MOL1         0.0833
      17    H11     19.460238   21.181850   24.275247 H          1 MOL1         0.0833
      18    C7      19.088017   20.440566   22.286344 C.3        1 MOL1        -0.1684
      19    H12     18.453887   21.330857   22.175917 H          1 MOL1         0.0833
      20    H13     18.501068   19.628480   21.842453 H          1 MOL1         0.0833
      21    C8      20.392690   20.670917   21.480594 C.3        1 MOL1        -0.1684
      22    H14     21.192145   21.063024   22.122414 H          1 MOL1         0.0833
      23    H15     20.193929   21.469098   20.752278 H          1 MOL1         0.0833
      24    O1      20.519993   19.317704   25.653105 O.3        1 MOL1        -0.5508
      25    H16     21.292873   18.774287   25.912791 H          1 MOL1         0.3780
@<TRIPOS>BOND
    1     1     2    1
    2     1     3    1
    3     1     4    1
    4     4     5    1
    5     4     6    1
    6     4     7    1
    7     7     8    1
    8     7     9    1
    9     7    10    1
   10    10    11    1
   11    10    12    1
   12    10    13    1
   13    13    14    1
   14    13    15    1
   15    15    16    1
   16    15    17    1
   17    15    18    1
   18    18    19    1
   19    18    20    1
   20     1    21    1
   21    18    21    1
   22    21    22    1
   23    21    23    1
   24    13    24    1
   25    24    25    1
@<TRIPOS>SUBSTRUCTURE
       1 MOL1            1 RESIDUE      1      MOL     
@<SCITEGIC>MOL_PROPERTY
VM2 Rank
SciTegic.value.IntegerValue
11

@<SCITEGIC>MOL_PROPERTY
Conf_Id
SciTegic.value.IntegerValue
1359

@<SCITEGIC>MOL_PROPERTY
Probability
SciTegic.value.DoubleValue
3.09

@<SCITEGIC>MOL_PROPERTY
Sum Probability
SciTegic.value.DoubleValue
41.96

@<SCITEGIC>MOL_PROPERTY
Delta G
SciTegic.value.DoubleValue
0.248

@<SCITEGIC>MOL_PROPERTY
G
SciTegic.value.DoubleValue
62.324

@<SCITEGIC>MOL_PROPERTY
E
SciTegic.value.DoubleValue
29.662

@<SCITEGIC>MOL_PROPERTY
-TS
SciTegic.value.DoubleValue
32.661

@<SCITEGIC>MOL_PROPERTY
U+W
SciTegic.value.DoubleValue
9.095

@<SCITEGIC>MOL_PROPERTY
U
SciTegic.value.DoubleValue
11.209

@<SCITEGIC>MOL_PROPERTY
W
SciTegic.value.DoubleValue
-2.114

@<SCITEGIC>MOL_PROPERTY
W(PB)
SciTegic.value.DoubleValue
-4.242

@<SCITEGIC>MOL_PROPERTY
W(SA)
SciTegic.value.DoubleValue
2.128

@<SCITEGIC>MOL_PROPERTY
Valence
SciTegic.value.DoubleValue
16.994

@<SCITEGIC>MOL_PROPERTY
Coulomb
SciTegic.value.DoubleValue
-8.421

@<SCITEGIC>MOL_PROPERTY
VdW
SciTegic.value.DoubleValue
2.637

@<SCITEGIC>MOL_PROPERTY
VdW6
SciTegic.value.DoubleValue
-12.542

@<SCITEGIC>MOL_PROPERTY
VdW12
SciTegic.value.DoubleValue
15.179

@<SCITEGIC>MOL_PROPERTY
Bond
SciTegic.value.DoubleValue
0.410

@<SCITEGIC>MOL_PROPERTY
Angle
SciTegic.value.DoubleValue
5.145

@<SCITEGIC>MOL_PROPERTY
Pdih
SciTegic.value.DoubleValue
11.438

@<SCITEGIC>MOL_PROPERTY
Idih
SciTegic.value.DoubleValue
0.000

@<SCITEGIC>MOL_PROPERTY
Tether
SciTegic.value.DoubleValue
0.000

@<TRIPOS>MOLECULE
guest-s17_vm2.mol2 : vm2 ligand conformer 12
          25          25           1
SMALL
USER_CHARGES
 
@<TRIPOS>ATOM
       1    C1      20.885248   19.438254   20.677200 C.3        1 MOL1        -0.1684
       2    H1      20.083758   19.097555   20.007554 H          1 MOL1         0.0833
       3    H2      21.695854   19.774517   20.016364 H          1 MOL1         0.0833
       4    C2      21.415712   18.231844   21.495663 C.3        1 MOL1        -0.1684
       5    H3      21.848986   17.523080   20.776656 H          1 MOL1         0.0833
       6    H4      22.252858   18.534098   22.138033 H          1 MOL1         0.0833
       7    C3      20.333520   17.471073   22.304709 C.3        1 MOL1        -0.1684
       8    H5      20.524643   16.393695   22.206418 H          1 MOL1         0.0833
       9    H6      19.344834   17.616821   21.854943 H          1 MOL1         0.0833
      10    C4      20.296755   17.793560   23.821647 C.3        1 MOL1        -0.1760
      11    H7      19.370053   17.390966   24.250801 H          1 MOL1         0.0833
      12    H8      21.114566   17.238107   24.299574 H          1 MOL1         0.0833
      13    C5      20.446124   19.276982   24.233377 C.3        1 MOL1         0.1219
      14    H9      21.389136   19.667223   23.831270 H          1 MOL1         0.0790
      15    C6      19.286031   20.207783   23.807298 C.3        1 MOL1        -0.1760
      16    H10     18.346875   19.834334   24.236279 H          1 MOL1         0.0833
      17    H11     19.458952   21.188814   24.268846 H          1 MOL1         0.0833
      18    C7      19.087564   20.438462   22.286465 C.3        1 MOL1        -0.1684
      19    H12     18.450509   21.326271   22.172629 H          1 MOL1         0.0833
      20    H13     18.503340   19.622966   21.845222 H          1 MOL1         0.0833
      21    C8      20.391848   20.670245   21.480519 C.3        1 MOL1        -0.1684
      22    H14     21.191329   21.062977   22.121879 H          1 MOL1         0.0833
      23    H15     20.192193   21.468186   20.752170 H          1 MOL1         0.0833
      24    O1      20.521198   19.314798   25.653123 O.3        1 MOL1        -0.5508
      25    H16     20.674002   20.249658   25.903661 H          1 MOL1         0.3780
@<TRIPOS>BOND
    1     1     2    1
    2     1     3    1
    3     1     4    1
    4     4     5    1
    5     4     6    1
    6     4     7    1
    7     7     8    1
    8     7     9    1
    9     7    10    1
   10    10    11    1
   11    10    12    1
   12    10    13    1
   13    13    14    1
   14    13    15    1
   15    15    16    1
   16    15    17    1
   17    15    18    1
   18    18    19    1
   19    18    20    1
   20     1    21    1
   21    18    21    1
   22    21    22    1
   23    21    23    1
   24    13    24    1
   25    24    25    1
@<TRIPOS>SUBSTRUCTURE
       1 MOL1            1 RESIDUE      1      MOL     
@<SCITEGIC>MOL_PROPERTY
VM2 Rank
SciTegic.value.IntegerValue
12

@<SCITEGIC>MOL_PROPERTY
Conf_Id
SciTegic.value.IntegerValue
1291

@<SCITEGIC>MOL_PROPERTY
Probability
SciTegic.value.DoubleValue
3.04

@<SCITEGIC>MOL_PROPERTY
Sum Probability
SciTegic.value.DoubleValue
45.01

@<SCITEGIC>MOL_PROPERTY
Delta G
SciTegic.value.DoubleValue
0.258

@<SCITEGIC>MOL_PROPERTY
G
SciTegic.value.DoubleValue
62.334

@<SCITEGIC>MOL_PROPERTY
E
SciTegic.value.DoubleValue
29.672

@<SCITEGIC>MOL_PROPERTY
-TS
SciTegic.value.DoubleValue
32.661

@<SCITEGIC>MOL_PROPERTY
U+W
SciTegic.value.DoubleValue
9.105

@<SCITEGIC>MOL_PROPERTY
U
SciTegic.value.DoubleValue
11.209

@<SCITEGIC>MOL_PROPERTY
W
SciTegic.value.DoubleValue
-2.104

@<SCITEGIC>MOL_PROPERTY
W(PB)
SciTegic.value.DoubleValue
-4.233

@<SCITEGIC>MOL_PROPERTY
W(SA)
SciTegic.value.DoubleValue
2.129

@<SCITEGIC>MOL_PROPERTY
Valence
SciTegic.value.DoubleValue
16.993

@<SCITEGIC>MOL_PROPERTY
Coulomb
SciTegic.value.DoubleValue
-8.421

@<SCITEGIC>MOL_PROPERTY
VdW
SciTegic.value.DoubleValue
2.637

@<SCITEGIC>MOL_PROPERTY
VdW6
SciTegic.value.DoubleValue
-12.542

@<SCITEGIC>MOL_PROPERTY
VdW12
SciTegic.value.DoubleValue
15.179

@<SCITEGIC>MOL_PROPERTY
Bond
SciTegic.value.DoubleValue
0.410

@<SCITEGIC>MOL_PROPERTY
Angle
SciTegic.value.DoubleValue
5.145

@<SCITEGIC>MOL_PROPERTY
Pdih
SciTegic.value.DoubleValue
11.438

@<SCITEGIC>MOL_PROPERTY
Idih
SciTegic.value.DoubleValue
0.000

@<SCITEGIC>MOL_PROPERTY
Tether
SciTegic.value.DoubleValue
0.000

@<TRIPOS>MOLECULE
guest-s17_vm2.mol2 : vm2 ligand conformer 13
          25          25           1
SMALL
USER_CHARGES
 
@<TRIPOS>ATOM
       1    C1      20.559044   19.223388   20.605388 C.3        1 MOL1        -0.1684
       2    H1      20.076302   18.473861   19.963770 H          1 MOL1         0.0833
       3    H2      21.134052   19.867809   19.926414 H          1 MOL1         0.0833
       4    C2      21.572620   18.518423   21.541524 C.3        1 MOL1        -0.1684
       5    H3      22.321957   18.031699   20.902451 H          1 MOL1         0.0833
       6    H4      22.140196   19.259841   22.115376 H          1 MOL1         0.0833
       7    C3      20.993150   17.430156   22.480011 C.3        1 MOL1        -0.1684
       8    H5      21.838668   16.947295   22.988823 H          1 MOL1         0.0833
       9    H6      20.521175   16.643869   21.875408 H          1 MOL1         0.0833
      10    C4      19.989985   17.901049   23.564761 C.3        1 MOL1        -0.1760
      11    H7      18.990510   18.012511   23.132441 H          1 MOL1         0.0833
      12    H8      19.884126   17.079642   24.285891 H          1 MOL1         0.0833
      13    C5      20.394957   19.197418   24.313192 C.3        1 MOL1         0.1219
      14    H9      21.472816   19.372843   24.196569 H          1 MOL1         0.0790
      15    C6      19.623639   20.459871   23.854183 C.3        1 MOL1        -0.1760
      16    H10     18.544851   20.274783   23.939052 H          1 MOL1         0.0833
      17    H11     19.843437   21.262649   24.570441 H          1 MOL1         0.0833
      18    C7      19.944669   21.000353   22.433948 C.3        1 MOL1        -0.1684
      19    H12     21.013291   21.231825   22.337836 H          1 MOL1         0.0833
      20    H13     19.432010   21.967018   22.335756 H          1 MOL1         0.0833
      21    C8      19.462901   20.096951   21.269212 C.3        1 MOL1        -0.1684
      22    H14     19.048303   20.744440   20.484416 H          1 MOL1         0.0833
      23    H15     18.615796   19.478730   21.587052 H          1 MOL1         0.0833
      24    O1      20.123036   19.015391   25.697782 O.3        1 MOL1        -0.5508
      25    H16     20.668786   18.257026   25.993681 H          1 MOL1         0.3780
@<TRIPOS>BOND
    1     1     2    1
    2     1     3    1
    3     1     4    1
    4     4     5    1
    5     4     6    1
    6     4     7    1
    7     7     8    1
    8     7     9    1
    9     7    10    1
   10    10    11    1
   11    10    12    1
   12    10    13    1
   13    13    14    1
   14    13    15    1
   15    15    16    1
   16    15    17    1
   17    15    18    1
   18    18    19    1
   19    18    20    1
   20     1    21    1
   21    18    21    1
   22    21    22    1
   23    21    23    1
   24    13    24    1
   25    24    25    1
@<TRIPOS>SUBSTRUCTURE
       1 MOL1            1 RESIDUE      1      MOL     
@<SCITEGIC>MOL_PROPERTY
VM2 Rank
SciTegic.value.IntegerValue
13

@<SCITEGIC>MOL_PROPERTY
Conf_Id
SciTegic.value.IntegerValue
72

@<SCITEGIC>MOL_PROPERTY
Probability
SciTegic.value.DoubleValue
2.65

@<SCITEGIC>MOL_PROPERTY
Sum Probability
SciTegic.value.DoubleValue
47.66

@<SCITEGIC>MOL_PROPERTY
Delta G
SciTegic.value.DoubleValue
0.340

@<SCITEGIC>MOL_PROPERTY
G
SciTegic.value.DoubleValue
62.415

@<SCITEGIC>MOL_PROPERTY
E
SciTegic.value.DoubleValue
29.634

@<SCITEGIC>MOL_PROPERTY
-TS
SciTegic.value.DoubleValue
32.781

@<SCITEGIC>MOL_PROPERTY
U+W
SciTegic.value.DoubleValue
9.067

@<SCITEGIC>MOL_PROPERTY
U
SciTegic.value.DoubleValue
11.150

@<SCITEGIC>MOL_PROPERTY
W
SciTegic.value.DoubleValue
-2.083

@<SCITEGIC>MOL_PROPERTY
W(PB)
SciTegic.value.DoubleValue
-4.217

@<SCITEGIC>MOL_PROPERTY
W(SA)
SciTegic.value.DoubleValue
2.134

@<SCITEGIC>MOL_PROPERTY
Valence
SciTegic.value.DoubleValue
16.583

@<SCITEGIC>MOL_PROPERTY
Coulomb
SciTegic.value.DoubleValue
-8.361

@<SCITEGIC>MOL_PROPERTY
VdW
SciTegic.value.DoubleValue
2.928

@<SCITEGIC>MOL_PROPERTY
VdW6
SciTegic.value.DoubleValue
-12.538

@<SCITEGIC>MOL_PROPERTY
VdW12
SciTegic.value.DoubleValue
15.466

@<SCITEGIC>MOL_PROPERTY
Bond
SciTegic.value.DoubleValue
0.441

@<SCITEGIC>MOL_PROPERTY
Angle
SciTegic.value.DoubleValue
5.093

@<SCITEGIC>MOL_PROPERTY
Pdih
SciTegic.value.DoubleValue
11.049

@<SCITEGIC>MOL_PROPERTY
Idih
SciTegic.value.DoubleValue
0.000

@<SCITEGIC>MOL_PROPERTY
Tether
SciTegic.value.DoubleValue
0.000

@<TRIPOS>MOLECULE
guest-s17_vm2.mol2 : vm2 ligand conformer 14
          25          25           1
SMALL
USER_CHARGES
 
@<TRIPOS>ATOM
       1    C1      20.522430   19.366723   20.607157 C.3        1 MOL1        -0.1684
       2    H1      21.392760   19.313878   19.938836 H          1 MOL1         0.0833
       3    H2      19.658984   19.552838   19.954220 H          1 MOL1         0.0833
       4    C2      20.356143   17.977206   21.275660 C.3        1 MOL1        -0.1684
       5    H3      19.316140   17.817496   21.581752 H          1 MOL1         0.0833
       6    H4      20.529770   17.222365   20.496490 H          1 MOL1         0.0833
       7    C3      21.321303   17.684030   22.453522 C.3        1 MOL1        -0.1684
       8    H5      22.242098   18.274955   22.365677 H          1 MOL1         0.0833
       9    H6      21.642787   16.637333   22.364195 H          1 MOL1         0.0833
      10    C4      20.695150   17.846355   23.865554 C.3        1 MOL1        -0.1760
      11    H7      19.800065   17.215386   23.942648 H          1 MOL1         0.0833
      12    H8      21.409250   17.437094   24.592434 H          1 MOL1         0.0833
      13    C5      20.343336   19.286837   24.313491 C.3        1 MOL1         0.1219
      14    H9      21.231314   19.923842   24.204515 H          1 MOL1         0.0790
      15    C6      19.149837   19.914313   23.547620 C.3        1 MOL1        -0.1760
      16    H10     18.526652   19.127097   23.111495 H          1 MOL1         0.0833
      17    H11     18.485849   20.424107   24.258375 H          1 MOL1         0.0833
      18    C7      19.539960   20.951221   22.462546 C.3        1 MOL1        -0.1684
      19    H12     19.790900   21.892774   22.969944 H          1 MOL1         0.0833
      20    H13     18.657732   21.171158   21.846223 H          1 MOL1         0.0833
      21    C8      20.730195   20.586234   21.540052 C.3        1 MOL1        -0.1684
      22    H14     21.648732   20.465470   22.125590 H          1 MOL1         0.0833
      23    H15     20.924169   21.457086   20.899106 H          1 MOL1         0.0833
      24    O1      20.005646   19.230081   25.694399 O.3        1 MOL1        -0.5508
      25    H16     19.852352   20.153723   25.984061 H          1 MOL1         0.3780
@<TRIPOS>BOND
    1     1     2    1
    2     1     3    1
    3     1     4    1
    4     4     5    1
    5     4     6    1
    6     4     7    1
    7     7     8    1
    8     7     9    1
    9     7    10    1
   10    10    11    1
   11    10    12    1
   12    10    13    1
   13    13    14    1
   14    13    15    1
   15    15    16    1
   16    15    17    1
   17    15    18    1
   18    18    19    1
   19    18    20    1
   20     1    21    1
   21    18    21    1
   22    21    22    1
   23    21    23    1
   24    13    24    1
   25    24    25    1
@<TRIPOS>SUBSTRUCTURE
       1 MOL1            1 RESIDUE      1      MOL     
@<SCITEGIC>MOL_PROPERTY
VM2 Rank
SciTegic.value.IntegerValue
14

@<SCITEGIC>MOL_PROPERTY
Conf_Id
SciTegic.value.IntegerValue
747

@<SCITEGIC>MOL_PROPERTY
Probability
SciTegic.value.DoubleValue
2.62

@<SCITEGIC>MOL_PROPERTY
Sum Probability
SciTegic.value.DoubleValue
50.28

@<SCITEGIC>MOL_PROPERTY
Delta G
SciTegic.value.DoubleValue
0.348

@<SCITEGIC>MOL_PROPERTY
G
SciTegic.value.DoubleValue
62.424

@<SCITEGIC>MOL_PROPERTY
E
SciTegic.value.DoubleValue
29.643

@<SCITEGIC>MOL_PROPERTY
-TS
SciTegic.value.DoubleValue
32.781

@<SCITEGIC>MOL_PROPERTY
U+W
SciTegic.value.DoubleValue
9.075

@<SCITEGIC>MOL_PROPERTY
U
SciTegic.value.DoubleValue
11.150

@<SCITEGIC>MOL_PROPERTY
W
SciTegic.value.DoubleValue
-2.074

@<SCITEGIC>MOL_PROPERTY
W(PB)
SciTegic.value.DoubleValue
-4.196

@<SCITEGIC>MOL_PROPERTY
W(SA)
SciTegic.value.DoubleValue
2.121

@<SCITEGIC>MOL_PROPERTY
Valence
SciTegic.value.DoubleValue
16.583

@<SCITEGIC>MOL_PROPERTY
Coulomb
SciTegic.value.DoubleValue
-8.361

@<SCITEGIC>MOL_PROPERTY
VdW
SciTegic.value.DoubleValue
2.928

@<SCITEGIC>MOL_PROPERTY
VdW6
SciTegic.value.DoubleValue
-12.538

@<SCITEGIC>MOL_PROPERTY
VdW12
SciTegic.value.DoubleValue
15.466

@<SCITEGIC>MOL_PROPERTY
Bond
SciTegic.value.DoubleValue
0.441

@<SCITEGIC>MOL_PROPERTY
Angle
SciTegic.value.DoubleValue
5.093

@<SCITEGIC>MOL_PROPERTY
Pdih
SciTegic.value.DoubleValue
11.049

@<SCITEGIC>MOL_PROPERTY
Idih
SciTegic.value.DoubleValue
0.000

@<SCITEGIC>MOL_PROPERTY
Tether
SciTegic.value.DoubleValue
0.000

@<TRIPOS>MOLECULE
guest-s17_vm2.mol2 : vm2 ligand conformer 15
          25          25           1
SMALL
USER_CHARGES
 
@<TRIPOS>ATOM
       1    C1      20.521932   19.365772   20.605898 C.3        1 MOL1        -0.1684
       2    H1      21.392584   19.311049   19.938153 H          1 MOL1         0.0833
       3    H2      19.658885   19.551976   19.952460 H          1 MOL1         0.0833
       4    C2      20.353545   17.978096   21.277031 C.3        1 MOL1        -0.1684
       5    H3      19.313983   17.822280   21.586639 H          1 MOL1         0.0833
       6    H4      20.522882   17.221177   20.498933 H          1 MOL1         0.0833
       7    C3      21.321617   17.685820   22.452572 C.3        1 MOL1        -0.1684
       8    H5      22.241864   18.277304   22.362619 H          1 MOL1         0.0833
       9    H6      21.643813   16.639421   22.361898 H          1 MOL1         0.0833
      10    C4      20.698397   17.846960   23.865806 C.3        1 MOL1        -0.1760
      11    H7      19.803217   17.215583   23.941541 H          1 MOL1         0.0833
      12    H8      21.415027   17.433120   24.587276 H          1 MOL1         0.0833
      13    C5      20.344650   19.287289   24.315336 C.3        1 MOL1         0.1219
      14    H9      21.229635   19.929024   24.209397 H          1 MOL1         0.0790
      15    C6      19.152014   19.915764   23.549363 C.3        1 MOL1        -0.1760
      16    H10     18.522366   19.130036   23.120129 H          1 MOL1         0.0833
      17    H11     18.497447   20.431033   24.265308 H          1 MOL1         0.0833
      18    C7      19.540171   20.950160   22.460761 C.3        1 MOL1        -0.1684
      19    H12     19.790904   21.892421   22.966981 H          1 MOL1         0.0833
      20    H13     18.656986   21.168607   21.845368 H          1 MOL1         0.0833
      21    C8      20.730133   20.585584   21.538021 C.3        1 MOL1        -0.1684
      22    H14     21.648494   20.465268   22.123925 H          1 MOL1         0.0833
      23    H15     20.923792   21.456282   20.896784 H          1 MOL1         0.0833
      24    O1      20.001541   19.227554   25.695212 O.3        1 MOL1        -0.5508
      25    H16     20.787809   18.883366   26.168010 H          1 MOL1         0.3780
@<TRIPOS>BOND
    1     1     2    1
    2     1     3    1
    3     1     4    1
    4     4     5    1
    5     4     6    1
    6     4     7    1
    7     7     8    1
    8     7     9    1
    9     7    10    1
   10    10    11    1
   11    10    12    1
   12    10    13    1
   13    13    14    1
   14    13    15    1
   15    15    16    1
   16    15    17    1
   17    15    18    1
   18    18    19    1
   19    18    20    1
   20     1    21    1
   21    18    21    1
   22    21    22    1
   23    21    23    1
   24    13    24    1
   25    24    25    1
@<TRIPOS>SUBSTRUCTURE
       1 MOL1            1 RESIDUE      1      MOL     
@<SCITEGIC>MOL_PROPERTY
VM2 Rank
SciTegic.value.IntegerValue
15

@<SCITEGIC>MOL_PROPERTY
Conf_Id
SciTegic.value.IntegerValue
1433

@<SCITEGIC>MOL_PROPERTY
Probability
SciTegic.value.DoubleValue
2.59

@<SCITEGIC>MOL_PROPERTY
Sum Probability
SciTegic.value.DoubleValue
52.87

@<SCITEGIC>MOL_PROPERTY
Delta G
SciTegic.value.DoubleValue
0.354

@<SCITEGIC>MOL_PROPERTY
G
SciTegic.value.DoubleValue
62.430

@<SCITEGIC>MOL_PROPERTY
E
SciTegic.value.DoubleValue
29.684

@<SCITEGIC>MOL_PROPERTY
-TS
SciTegic.value.DoubleValue
32.745

@<SCITEGIC>MOL_PROPERTY
U+W
SciTegic.value.DoubleValue
9.117

@<SCITEGIC>MOL_PROPERTY
U
SciTegic.value.DoubleValue
11.364

@<SCITEGIC>MOL_PROPERTY
W
SciTegic.value.DoubleValue
-2.248

@<SCITEGIC>MOL_PROPERTY
W(PB)
SciTegic.value.DoubleValue
-4.367

@<SCITEGIC>MOL_PROPERTY
W(SA)
SciTegic.value.DoubleValue
2.119

@<SCITEGIC>MOL_PROPERTY
Valence
SciTegic.value.DoubleValue
16.582

@<SCITEGIC>MOL_PROPERTY
Coulomb
SciTegic.value.DoubleValue
-8.150

@<SCITEGIC>MOL_PROPERTY
VdW
SciTegic.value.DoubleValue
2.932

@<SCITEGIC>MOL_PROPERTY
VdW6
SciTegic.value.DoubleValue
-12.531

@<SCITEGIC>MOL_PROPERTY
VdW12
SciTegic.value.DoubleValue
15.464

@<SCITEGIC>MOL_PROPERTY
Bond
SciTegic.value.DoubleValue
0.439

@<SCITEGIC>MOL_PROPERTY
Angle
SciTegic.value.DoubleValue
5.099

@<SCITEGIC>MOL_PROPERTY
Pdih
SciTegic.value.DoubleValue
11.044

@<SCITEGIC>MOL_PROPERTY
Idih
SciTegic.value.DoubleValue
0.000

@<SCITEGIC>MOL_PROPERTY
Tether
SciTegic.value.DoubleValue
0.000

@<TRIPOS>MOLECULE
guest-s17_vm2.mol2 : vm2 ligand conformer 16
          25          25           1
SMALL
USER_CHARGES
 
@<TRIPOS>ATOM
       1    C1      20.557977   19.223608   20.604134 C.3        1 MOL1        -0.1684
       2    H1      20.075571   18.474262   19.962053 H          1 MOL1         0.0833
       3    H2      21.131870   19.869565   19.925680 H          1 MOL1         0.0833
       4    C2      21.572098   18.518774   21.539500 C.3        1 MOL1        -0.1684
       5    H3      22.321092   18.031912   20.900145 H          1 MOL1         0.0833
       6    H4      22.139874   19.259783   22.113678 H          1 MOL1         0.0833
       7    C3      20.992560   17.431026   22.478285 C.3        1 MOL1        -0.1684
       8    H5      21.838437   16.947549   22.985952 H          1 MOL1         0.0833
       9    H6      20.518876   16.645086   21.874661 H          1 MOL1         0.0833
      10    C4      19.992573   17.901612   23.566527 C.3        1 MOL1        -0.1760
      11    H7      18.989617   18.007526   23.141171 H          1 MOL1         0.0833
      12    H8      19.897259   17.083077   24.292784 H          1 MOL1         0.0833
      13    C5      20.396236   19.198107   24.315013 C.3        1 MOL1         0.1219
      14    H9      21.475330   19.368119   24.201439 H          1 MOL1         0.0790
      15    C6      19.626353   20.461769   23.854362 C.3        1 MOL1        -0.1760
      16    H10     18.547208   20.276866   23.937894 H          1 MOL1         0.0833
      17    H11     19.844670   21.269536   24.565131 H          1 MOL1         0.0833
      18    C7      19.946113   20.999284   22.432942 C.3        1 MOL1        -0.1684
      19    H12     21.014726   21.229965   22.334706 H          1 MOL1         0.0833
      20    H13     19.434134   21.966209   22.333371 H          1 MOL1         0.0833
      21    C8      19.461663   20.094435   21.270598 C.3        1 MOL1        -0.1684
      22    H14     19.042555   20.740340   20.486893 H          1 MOL1         0.0833
      23    H15     18.617643   19.473823   21.591990 H          1 MOL1         0.0833
      24    O1      20.118426   19.014385   25.698638 O.3        1 MOL1        -0.5508
      25    H16     20.434036   19.819072   26.160253 H          1 MOL1         0.3780
@<TRIPOS>BOND
    1     1     2    1
    2     1     3    1
    3     1     4    1
    4     4     5    1
    5     4     6    1
    6     4     7    1
    7     7     8    1
    8     7     9    1
    9     7    10    1
   10    10    11    1
   11    10    12    1
   12    10    13    1
   13    13    14    1
   14    13    15    1
   15    15    16    1
   16    15    17    1
   17    15    18    1
   18    18    19    1
   19    18    20    1
   20     1    21    1
   21    18    21    1
   22    21    22    1
   23    21    23    1
   24    13    24    1
   25    24    25    1
@<TRIPOS>SUBSTRUCTURE
       1 MOL1            1 RESIDUE      1      MOL     
@<SCITEGIC>MOL_PROPERTY
VM2 Rank
SciTegic.value.IntegerValue
16

@<SCITEGIC>MOL_PROPERTY
Conf_Id
SciTegic.value.IntegerValue
324

@<SCITEGIC>MOL_PROPERTY
Probability
SciTegic.value.DoubleValue
2.52

@<SCITEGIC>MOL_PROPERTY
Sum Probability
SciTegic.value.DoubleValue
55.39

@<SCITEGIC>MOL_PROPERTY
Delta G
SciTegic.value.DoubleValue
0.370

@<SCITEGIC>MOL_PROPERTY
G
SciTegic.value.DoubleValue
62.445

@<SCITEGIC>MOL_PROPERTY
E
SciTegic.value.DoubleValue
29.700

@<SCITEGIC>MOL_PROPERTY
-TS
SciTegic.value.DoubleValue
32.745

@<SCITEGIC>MOL_PROPERTY
U+W
SciTegic.value.DoubleValue
9.133

@<SCITEGIC>MOL_PROPERTY
U
SciTegic.value.DoubleValue
11.364

@<SCITEGIC>MOL_PROPERTY
W
SciTegic.value.DoubleValue
-2.232

@<SCITEGIC>MOL_PROPERTY
W(PB)
SciTegic.value.DoubleValue
-4.359

@<SCITEGIC>MOL_PROPERTY
W(SA)
SciTegic.value.DoubleValue
2.127

@<SCITEGIC>MOL_PROPERTY
Valence
SciTegic.value.DoubleValue
16.582

@<SCITEGIC>MOL_PROPERTY
Coulomb
SciTegic.value.DoubleValue
-8.150

@<SCITEGIC>MOL_PROPERTY
VdW
SciTegic.value.DoubleValue
2.933

@<SCITEGIC>MOL_PROPERTY
VdW6
SciTegic.value.DoubleValue
-12.531

@<SCITEGIC>MOL_PROPERTY
VdW12
SciTegic.value.DoubleValue
15.464

@<SCITEGIC>MOL_PROPERTY
Bond
SciTegic.value.DoubleValue
0.439

@<SCITEGIC>MOL_PROPERTY
Angle
SciTegic.value.DoubleValue
5.099

@<SCITEGIC>MOL_PROPERTY
Pdih
SciTegic.value.DoubleValue
11.044

@<SCITEGIC>MOL_PROPERTY
Idih
SciTegic.value.DoubleValue
0.000

@<SCITEGIC>MOL_PROPERTY
Tether
SciTegic.value.DoubleValue
0.000

@<TRIPOS>MOLECULE
guest-s17_vm2.mol2 : vm2 ligand conformer 17
          25          25           1
SMALL
USER_CHARGES
 
@<TRIPOS>ATOM
       1    C1      20.521595   19.365649   20.606642 C.3        1 MOL1        -0.1684
       2    H1      19.657999   19.551834   19.953922 H          1 MOL1         0.0833
       3    H2      21.391717   19.311451   19.938159 H          1 MOL1         0.0833
       4    C2      20.354461   17.977557   21.277256 C.3        1 MOL1        -0.1684
       5    H3      19.314880   17.820505   21.586136 H          1 MOL1         0.0833
       6    H4      20.525077   17.221096   20.498983 H          1 MOL1         0.0833
       7    C3      21.322300   17.685937   22.453178 C.3        1 MOL1        -0.1684
       8    H5      22.241907   18.278585   22.364372 H          1 MOL1         0.0833
       9    H6      21.645905   16.639957   22.362792 H          1 MOL1         0.0833
      10    C4      20.697402   17.846500   23.865530 C.3        1 MOL1        -0.1760
      11    H7      19.805580   17.210565   23.939390 H          1 MOL1         0.0833
      12    H8      21.414983   17.438799   24.590163 H          1 MOL1         0.0833
      13    C5      20.342749   19.286622   24.314038 C.3        1 MOL1         0.1219
      14    H9      21.228938   19.926702   24.209933 H          1 MOL1         0.0790
      15    C6      19.150137   19.916791   23.549098 C.3        1 MOL1        -0.1760
      16    H10     18.520331   19.132971   23.116073 H          1 MOL1         0.0833
      17    H11     18.495661   20.435349   24.262804 H          1 MOL1         0.0833
      18    C7      19.540729   20.951050   22.461431 C.3        1 MOL1        -0.1684
      19    H12     19.793032   21.892601   22.968261 H          1 MOL1         0.0833
      20    H13     18.658325   21.171626   21.845634 H          1 MOL1         0.0833
      21    C8      20.730451   20.585266   21.538914 C.3        1 MOL1        -0.1684
      22    H14     20.924889   21.455803   20.897691 H          1 MOL1         0.0833
      23    H15     21.648658   20.464484   22.125012 H          1 MOL1         0.0833
      24    O1      20.004175   19.227626   25.693911 O.3        1 MOL1        -0.5508
      25    H16     19.216452   18.649757   25.760998 H          1 MOL1         0.3780
@<TRIPOS>BOND
    1     1     2    1
    2     1     3    1
    3     1     4    1
    4     4     5    1
    5     4     6    1
    6     4     7    1
    7     7     8    1
    8     7     9    1
    9     7    10    1
   10    10    11    1
   11    10    12    1
   12    10    13    1
   13    13    14    1
   14    13    15    1
   15    15    16    1
   16    15    17    1
   17    15    18    1
   18    18    19    1
   19    18    20    1
   20     1    21    1
   21    18    21    1
   22    21    22    1
   23    21    23    1
   24    13    24    1
   25    24    25    1
@<TRIPOS>SUBSTRUCTURE
       1 MOL1            1 RESIDUE      1      MOL     
@<SCITEGIC>MOL_PROPERTY
VM2 Rank
SciTegic.value.IntegerValue
17

@<SCITEGIC>MOL_PROPERTY
Conf_Id
SciTegic.value.IntegerValue
1695

@<SCITEGIC>MOL_PROPERTY
Probability
SciTegic.value.DoubleValue
2.48

@<SCITEGIC>MOL_PROPERTY
Sum Probability
SciTegic.value.DoubleValue
57.87

@<SCITEGIC>MOL_PROPERTY
Delta G
SciTegic.value.DoubleValue
0.380

@<SCITEGIC>MOL_PROPERTY
G
SciTegic.value.DoubleValue
62.455

@<SCITEGIC>MOL_PROPERTY
E
SciTegic.value.DoubleValue
29.716

@<SCITEGIC>MOL_PROPERTY
-TS
SciTegic.value.DoubleValue
32.739

@<SCITEGIC>MOL_PROPERTY
U+W
SciTegic.value.DoubleValue
9.148

@<SCITEGIC>MOL_PROPERTY
U
SciTegic.value.DoubleValue
11.181

@<SCITEGIC>MOL_PROPERTY
W
SciTegic.value.DoubleValue
-2.033

@<SCITEGIC>MOL_PROPERTY
W(PB)
SciTegic.value.DoubleValue
-4.147

@<SCITEGIC>MOL_PROPERTY
W(SA)
SciTegic.value.DoubleValue
2.114

@<SCITEGIC>MOL_PROPERTY
Valence
SciTegic.value.DoubleValue
16.955

@<SCITEGIC>MOL_PROPERTY
Coulomb
SciTegic.value.DoubleValue
-8.661

@<SCITEGIC>MOL_PROPERTY
VdW
SciTegic.value.DoubleValue
2.887

@<SCITEGIC>MOL_PROPERTY
VdW6
SciTegic.value.DoubleValue
-12.561

@<SCITEGIC>MOL_PROPERTY
VdW12
SciTegic.value.DoubleValue
15.448

@<SCITEGIC>MOL_PROPERTY
Bond
SciTegic.value.DoubleValue
0.433

@<SCITEGIC>MOL_PROPERTY
Angle
SciTegic.value.DoubleValue
5.120

@<SCITEGIC>MOL_PROPERTY
Pdih
SciTegic.value.DoubleValue
11.402

@<SCITEGIC>MOL_PROPERTY
Idih
SciTegic.value.DoubleValue
0.000

@<SCITEGIC>MOL_PROPERTY
Tether
SciTegic.value.DoubleValue
0.000

@<TRIPOS>MOLECULE
guest-s17_vm2.mol2 : vm2 ligand conformer 18
          25          25           1
SMALL
USER_CHARGES
 
@<TRIPOS>ATOM
       1    C1      20.885973   19.438690   20.678228 C.3        1 MOL1        -0.1684
       2    H1      20.084658   19.098482   20.008128 H          1 MOL1         0.0833
       3    H2      21.697028   19.774754   20.017844 H          1 MOL1         0.0833
       4    C2      21.415717   18.231976   21.496702 C.3        1 MOL1        -0.1684
       5    H3      21.849622   17.523436   20.777854 H          1 MOL1         0.0833
       6    H4      22.252345   18.534153   22.139834 H          1 MOL1         0.0833
       7    C3      20.332817   17.471062   22.304625 C.3        1 MOL1        -0.1684
       8    H5      19.344265   17.618932   21.855159 H          1 MOL1         0.0833
       9    H6      20.522705   16.393638   22.204164 H          1 MOL1         0.0833
      10    C4      20.296897   17.790999   23.821947 C.3        1 MOL1        -0.1760
      11    H7      19.371385   17.382585   24.248021 H          1 MOL1         0.0833
      12    H8      21.117923   17.237096   24.296611 H          1 MOL1         0.0833
      13    C5      20.443711   19.275217   24.232666 C.3        1 MOL1         0.1219
      14    H9      21.385631   19.667784   23.830831 H          1 MOL1         0.0790
      15    C6      19.283897   20.206224   23.806979 C.3        1 MOL1        -0.1760
      16    H10     18.342059   19.836675   24.232760 H          1 MOL1         0.0833
      17    H11     19.462032   21.185017   24.272199 H          1 MOL1         0.0833
      18    C7      19.087602   20.440127   22.286230 C.3        1 MOL1        -0.1684
      19    H12     18.502231   19.626663   21.842678 H          1 MOL1         0.0833
      20    H13     18.452625   21.329572   22.173606 H          1 MOL1         0.0833
      21    C8      20.392894   20.670812   21.481618 C.3        1 MOL1        -0.1684
      22    H14     21.191942   21.062567   22.124211 H          1 MOL1         0.0833
      23    H15     20.194793   21.469295   20.753451 H          1 MOL1         0.0833
      24    O1      20.524493   19.317892   25.651006 O.3        1 MOL1        -0.5508
      25    H16     19.676054   18.964234   25.988208 H          1 MOL1         0.3780
@<TRIPOS>BOND
    1     1     2    1
    2     1     3    1
    3     1     4    1
    4     4     5    1
    5     4     6    1
    6     4     7    1
    7     7     8    1
    8     7     9    1
    9     7    10    1
   10    10    11    1
   11    10    12    1
   12    10    13    1
   13    13    14    1
   14    13    15    1
   15    15    16    1
   16    15    17    1
   17    15    18    1
   18    18    19    1
   19    18    20    1
   20     1    21    1
   21    18    21    1
   22    21    22    1
   23    21    23    1
   24    13    24    1
   25    24    25    1
@<TRIPOS>SUBSTRUCTURE
       1 MOL1            1 RESIDUE      1      MOL     
@<SCITEGIC>MOL_PROPERTY
VM2 Rank
SciTegic.value.IntegerValue
18

@<SCITEGIC>MOL_PROPERTY
Conf_Id
SciTegic.value.IntegerValue
1626

@<SCITEGIC>MOL_PROPERTY
Probability
SciTegic.value.DoubleValue
2.41

@<SCITEGIC>MOL_PROPERTY
Sum Probability
SciTegic.value.DoubleValue
60.28

@<SCITEGIC>MOL_PROPERTY
Delta G
SciTegic.value.DoubleValue
0.398

@<SCITEGIC>MOL_PROPERTY
G
SciTegic.value.DoubleValue
62.474

@<SCITEGIC>MOL_PROPERTY
E
SciTegic.value.DoubleValue
29.828

@<SCITEGIC>MOL_PROPERTY
-TS
SciTegic.value.DoubleValue
32.646

@<SCITEGIC>MOL_PROPERTY
U+W
SciTegic.value.DoubleValue
9.260

@<SCITEGIC>MOL_PROPERTY
U
SciTegic.value.DoubleValue
11.191

@<SCITEGIC>MOL_PROPERTY
W
SciTegic.value.DoubleValue
-1.930

@<SCITEGIC>MOL_PROPERTY
W(PB)
SciTegic.value.DoubleValue
-4.074

@<SCITEGIC>MOL_PROPERTY
W(SA)
SciTegic.value.DoubleValue
2.144

@<SCITEGIC>MOL_PROPERTY
Valence
SciTegic.value.DoubleValue
17.334

@<SCITEGIC>MOL_PROPERTY
Coulomb
SciTegic.value.DoubleValue
-8.749

@<SCITEGIC>MOL_PROPERTY
VdW
SciTegic.value.DoubleValue
2.606

@<SCITEGIC>MOL_PROPERTY
VdW6
SciTegic.value.DoubleValue
-12.571

@<SCITEGIC>MOL_PROPERTY
VdW12
SciTegic.value.DoubleValue
15.178

@<SCITEGIC>MOL_PROPERTY
Bond
SciTegic.value.DoubleValue
0.408

@<SCITEGIC>MOL_PROPERTY
Angle
SciTegic.value.DoubleValue
5.152

@<SCITEGIC>MOL_PROPERTY
Pdih
SciTegic.value.DoubleValue
11.774

@<SCITEGIC>MOL_PROPERTY
Idih
SciTegic.value.DoubleValue
0.000

@<SCITEGIC>MOL_PROPERTY
Tether
SciTegic.value.DoubleValue
0.000

@<TRIPOS>MOLECULE
guest-s17_vm2.mol2 : vm2 ligand conformer 19
          25          25           1
SMALL
USER_CHARGES
 
@<TRIPOS>ATOM
       1    C1      20.557662   19.223495   20.604875 C.3        1 MOL1        -0.1684
       2    H1      20.074768   18.473869   19.963486 H          1 MOL1         0.0833
       3    H2      21.131629   19.868655   19.925721 H          1 MOL1         0.0833
       4    C2      21.572016   18.519107   21.540365 C.3        1 MOL1        -0.1684
       5    H3      22.321387   18.032833   20.901001 H          1 MOL1         0.0833
       6    H4      22.139444   19.260251   22.114762 H          1 MOL1         0.0833
       7    C3      20.993367   17.430719   22.478902 C.3        1 MOL1        -0.1684
       8    H5      21.839801   16.948734   22.987127 H          1 MOL1         0.0833
       9    H6      20.521627   16.643899   21.874855 H          1 MOL1         0.0833
      10    C4      19.991826   17.899567   23.566273 C.3        1 MOL1        -0.1760
      11    H7      18.990086   18.004077   23.137166 H          1 MOL1         0.0833
      12    H8      19.898833   17.078737   24.290294 H          1 MOL1         0.0833
      13    C5      20.394409   19.197175   24.313744 C.3        1 MOL1         0.1219
      14    H9      21.473218   19.369102   24.202014 H          1 MOL1         0.0790
      15    C6      19.625484   20.461450   23.854120 C.3        1 MOL1        -0.1760
      16    H10     18.545460   20.282259   23.935697 H          1 MOL1         0.0833
      17    H11     19.848922   21.265543   24.568084 H          1 MOL1         0.0833
      18    C7      19.946924   20.999740   22.433581 C.3        1 MOL1        -0.1684
      19    H12     21.015945   21.229013   22.336515 H          1 MOL1         0.0833
      20    H13     19.436377   21.967443   22.334297 H          1 MOL1         0.0833
      21    C8      19.462046   20.095602   21.270837 C.3        1 MOL1        -0.1684
      22    H14     19.044221   20.742149   20.486969 H          1 MOL1         0.0833
      23    H15     18.617076   19.475926   21.591503 H          1 MOL1         0.0833
      24    O1      20.120266   19.016146   25.697303 O.3        1 MOL1        -0.5508
      25    H16     19.154905   18.869278   25.771121 H          1 MOL1         0.3780
@<TRIPOS>BOND
    1     1     2    1
    2     1     3    1
    3     1     4    1
    4     4     5    1
    5     4     6    1
    6     4     7    1
    7     7     8    1
    8     7     9    1
    9     7    10    1
   10    10    11    1
   11    10    12    1
   12    10    13    1
   13    13    14    1
   14    13    15    1
   15    15    16    1
   16    15    17    1
   17    15    18    1
   18    18    19    1
   19    18    20    1
   20     1    21    1
   21    18    21    1
   22    21    22    1
   23    21    23    1
   24    13    24    1
   25    24    25    1
@<TRIPOS>SUBSTRUCTURE
       1 MOL1            1 RESIDUE      1      MOL     
@<SCITEGIC>MOL_PROPERTY
VM2 Rank
SciTegic.value.IntegerValue
19

@<SCITEGIC>MOL_PROPERTY
Conf_Id
SciTegic.value.IntegerValue
1691

@<SCITEGIC>MOL_PROPERTY
Probability
SciTegic.value.DoubleValue
2.23

@<SCITEGIC>MOL_PROPERTY
Sum Probability
SciTegic.value.DoubleValue
62.51

@<SCITEGIC>MOL_PROPERTY
Delta G
SciTegic.value.DoubleValue
0.443

@<SCITEGIC>MOL_PROPERTY
G
SciTegic.value.DoubleValue
62.519

@<SCITEGIC>MOL_PROPERTY
E
SciTegic.value.DoubleValue
29.779

@<SCITEGIC>MOL_PROPERTY
-TS
SciTegic.value.DoubleValue
32.740

@<SCITEGIC>MOL_PROPERTY
U+W
SciTegic.value.DoubleValue
9.212

@<SCITEGIC>MOL_PROPERTY
U
SciTegic.value.DoubleValue
11.181

@<SCITEGIC>MOL_PROPERTY
W
SciTegic.value.DoubleValue
-1.969

@<SCITEGIC>MOL_PROPERTY
W(PB)
SciTegic.value.DoubleValue
-4.091

@<SCITEGIC>MOL_PROPERTY
W(SA)
SciTegic.value.DoubleValue
2.122

@<SCITEGIC>MOL_PROPERTY
Valence
SciTegic.value.DoubleValue
16.955

@<SCITEGIC>MOL_PROPERTY
Coulomb
SciTegic.value.DoubleValue
-8.661

@<SCITEGIC>MOL_PROPERTY
VdW
SciTegic.value.DoubleValue
2.887

@<SCITEGIC>MOL_PROPERTY
VdW6
SciTegic.value.DoubleValue
-12.561

@<SCITEGIC>MOL_PROPERTY
VdW12
SciTegic.value.DoubleValue
15.448

@<SCITEGIC>MOL_PROPERTY
Bond
SciTegic.value.DoubleValue
0.433

@<SCITEGIC>MOL_PROPERTY
Angle
SciTegic.value.DoubleValue
5.120

@<SCITEGIC>MOL_PROPERTY
Pdih
SciTegic.value.DoubleValue
11.402

@<SCITEGIC>MOL_PROPERTY
Idih
SciTegic.value.DoubleValue
0.000

@<SCITEGIC>MOL_PROPERTY
Tether
SciTegic.value.DoubleValue
0.000

@<TRIPOS>MOLECULE
guest-s17_vm2.mol2 : vm2 ligand conformer 20
          25          25           1
SMALL
USER_CHARGES
 
@<TRIPOS>ATOM
       1    C1      20.073468   19.166399   20.752284 C.3        1 MOL1        -0.1684
       2    H1      20.171205   19.233465   19.660120 H          1 MOL1         0.0833
       3    H2      19.005156   18.992021   20.933509 H          1 MOL1         0.0833
       4    C2      20.914889   17.945445   21.207935 C.3        1 MOL1        -0.1684
       5    H3      20.622675   17.088567   20.585740 H          1 MOL1         0.0833
       6    H4      21.973723   18.127281   20.978691 H          1 MOL1         0.0833
       7    C3      20.776563   17.517385   22.692351 C.3        1 MOL1        -0.1684
       8    H5      21.313937   16.565995   22.804969 H          1 MOL1         0.0833
       9    H6      19.731358   17.285508   22.934803 H          1 MOL1         0.0833
      10    C4      21.378357   18.518767   23.715176 C.3        1 MOL1        -0.1760
      11    H7      21.928155   17.944830   24.472577 H          1 MOL1         0.0833
      12    H8      22.147461   19.134646   23.237718 H          1 MOL1         0.0833
      13    C5      20.359938   19.422649   24.455783 C.3        1 MOL1         0.1219
      14    H9      20.918624   20.244936   24.925433 H          1 MOL1         0.0790
      15    C6      19.229083   20.039017   23.598939 C.3        1 MOL1        -0.1760
      16    H10     18.617419   19.246513   23.154653 H          1 MOL1         0.0833
      17    H11     18.551405   20.563335   24.285451 H          1 MOL1         0.0833
      18    C7      19.661549   21.059890   22.514678 C.3        1 MOL1        -0.1684
      19    H12     20.185952   21.898202   22.992963 H          1 MOL1         0.0833
      20    H13     18.746270   21.489071   22.084655 H          1 MOL1         0.0833
      21    C8      20.527519   20.525475   21.345163 C.3        1 MOL1        -0.1684
      22    H14     21.584162   20.485248   21.632758 H          1 MOL1         0.0833
      23    H15     20.489866   21.277398   20.545038 H          1 MOL1         0.0833
      24    O1      19.742634   18.647974   25.477690 O.3        1 MOL1        -0.5508
      25    H16     20.464562   18.275352   26.024541 H          1 MOL1         0.3780
@<TRIPOS>BOND
    1     1     2    1
    2     1     3    1
    3     1     4    1
    4     4     5    1
    5     4     6    1
    6     4     7    1
    7     7     8    1
    8     7     9    1
    9     7    10    1
   10    10    11    1
   11    10    12    1
   12    10    13    1
   13    13    14    1
   14    13    15    1
   15    15    16    1
   16    15    17    1
   17    15    18    1
   18    18    19    1
   19    18    20    1
   20     1    21    1
   21    18    21    1
   22    21    22    1
   23    21    23    1
   24    13    24    1
   25    24    25    1
@<TRIPOS>SUBSTRUCTURE
       1 MOL1            1 RESIDUE      1      MOL     
@<SCITEGIC>MOL_PROPERTY
VM2 Rank
SciTegic.value.IntegerValue
20

@<SCITEGIC>MOL_PROPERTY
Conf_Id
SciTegic.value.IntegerValue
1051

@<SCITEGIC>MOL_PROPERTY
Probability
SciTegic.value.DoubleValue
2.00

@<SCITEGIC>MOL_PROPERTY
Sum Probability
SciTegic.value.DoubleValue
64.51

@<SCITEGIC>MOL_PROPERTY
Delta G
SciTegic.value.DoubleValue
0.509

@<SCITEGIC>MOL_PROPERTY
G
SciTegic.value.DoubleValue
62.584

@<SCITEGIC>MOL_PROPERTY
E
SciTegic.value.DoubleValue
29.865

@<SCITEGIC>MOL_PROPERTY
-TS
SciTegic.value.DoubleValue
32.719

@<SCITEGIC>MOL_PROPERTY
U+W
SciTegic.value.DoubleValue
9.298

@<SCITEGIC>MOL_PROPERTY
U
SciTegic.value.DoubleValue
11.545

@<SCITEGIC>MOL_PROPERTY
W
SciTegic.value.DoubleValue
-2.247

@<SCITEGIC>MOL_PROPERTY
W(PB)
SciTegic.value.DoubleValue
-4.380

@<SCITEGIC>MOL_PROPERTY
W(SA)
SciTegic.value.DoubleValue
2.133

@<SCITEGIC>MOL_PROPERTY
Valence
SciTegic.value.DoubleValue
16.814

@<SCITEGIC>MOL_PROPERTY
Coulomb
SciTegic.value.DoubleValue
-7.999

@<SCITEGIC>MOL_PROPERTY
VdW
SciTegic.value.DoubleValue
2.729

@<SCITEGIC>MOL_PROPERTY
VdW6
SciTegic.value.DoubleValue
-12.749

@<SCITEGIC>MOL_PROPERTY
VdW12
SciTegic.value.DoubleValue
15.478

@<SCITEGIC>MOL_PROPERTY
Bond
SciTegic.value.DoubleValue
0.438

@<SCITEGIC>MOL_PROPERTY
Angle
SciTegic.value.DoubleValue
5.318

@<SCITEGIC>MOL_PROPERTY
Pdih
SciTegic.value.DoubleValue
11.059

@<SCITEGIC>MOL_PROPERTY
Idih
SciTegic.value.DoubleValue
0.000

@<SCITEGIC>MOL_PROPERTY
Tether
SciTegic.value.DoubleValue
0.000

@<TRIPOS>MOLECULE
guest-s17_vm2.mol2 : vm2 ligand conformer 21
          25          25           1
SMALL
USER_CHARGES
 
@<TRIPOS>ATOM
       1    C1      21.058480   19.529846   20.991380 C.3        1 MOL1        -0.1684
       2    H1      21.421009   19.684238   19.966013 H          1 MOL1         0.0833
       3    H2      21.876571   19.881733   21.630157 H          1 MOL1         0.0833
       4    C2      20.842559   18.007847   21.179821 C.3        1 MOL1        -0.1684
       5    H3      20.092085   17.655516   20.459301 H          1 MOL1         0.0833
       6    H4      21.779364   17.505410   20.902622 H          1 MOL1         0.0833
       7    C3      20.445854   17.523472   22.597547 C.3        1 MOL1        -0.1684
       8    H5      20.621612   16.439470   22.627858 H          1 MOL1         0.0833
       9    H6      19.366761   17.626543   22.748917 H          1 MOL1         0.0833
      10    C4      21.243365   18.171833   23.764093 C.3        1 MOL1        -0.1760
      11    H7      21.466449   17.381948   24.493484 H          1 MOL1         0.0833
      12    H8      22.225110   18.514070   23.414921 H          1 MOL1         0.0833
      13    C5      20.535481   19.309554   24.546071 C.3        1 MOL1         0.1219
      14    H9      21.222820   19.605531   25.351539 H          1 MOL1         0.0790
      15    C6      20.199014   20.604862   23.761237 C.3        1 MOL1        -0.1760
      16    H10     19.779436   21.312114   24.488868 H          1 MOL1         0.0833
      17    H11     21.123670   21.080119   23.411932 H          1 MOL1         0.0833
      18    C7      19.180673   20.471037   22.594061 C.3        1 MOL1        -0.1684
      19    H12     18.511945   19.618079   22.746526 H          1 MOL1         0.0833
      20    H13     18.515899   21.345200   22.622065 H          1 MOL1         0.0833
      21    C8      19.806314   20.422167   21.176978 C.3        1 MOL1        -0.1684
      22    H14     20.087697   21.446812   20.898026 H          1 MOL1         0.0833
      23    H15     19.034566   20.119472   20.456367 H          1 MOL1         0.0833
      24    O1      19.352261   18.802382   25.148810 O.3        1 MOL1        -0.5508
      25    H16     18.767299   18.550496   24.408053 H          1 MOL1         0.3780
@<TRIPOS>BOND
    1     1     2    1
    2     1     3    1
    3     1     4    1
    4     4     5    1
    5     4     6    1
    6     4     7    1
    7     7     8    1
    8     7     9    1
    9     7    10    1
   10    10    11    1
   11    10    12    1
   12    10    13    1
   13    13    14    1
   14    13    15    1
   15    15    16    1
   16    15    17    1
   17    15    18    1
   18    18    19    1
   19    18    20    1
   20     1    21    1
   21    18    21    1
   22    21    22    1
   23    21    23    1
   24    13    24    1
   25    24    25    1
@<TRIPOS>SUBSTRUCTURE
       1 MOL1            1 RESIDUE      1      MOL     
@<SCITEGIC>MOL_PROPERTY
VM2 Rank
SciTegic.value.IntegerValue
21

@<SCITEGIC>MOL_PROPERTY
Conf_Id
SciTegic.value.IntegerValue
535

@<SCITEGIC>MOL_PROPERTY
Probability
SciTegic.value.DoubleValue
1.91

@<SCITEGIC>MOL_PROPERTY
Sum Probability
SciTegic.value.DoubleValue
66.42

@<SCITEGIC>MOL_PROPERTY
Delta G
SciTegic.value.DoubleValue
0.537

@<SCITEGIC>MOL_PROPERTY
G
SciTegic.value.DoubleValue
62.613

@<SCITEGIC>MOL_PROPERTY
E
SciTegic.value.DoubleValue
29.810

@<SCITEGIC>MOL_PROPERTY
-TS
SciTegic.value.DoubleValue
32.803

@<SCITEGIC>MOL_PROPERTY
U+W
SciTegic.value.DoubleValue
9.243

@<SCITEGIC>MOL_PROPERTY
U
SciTegic.value.DoubleValue
10.674

@<SCITEGIC>MOL_PROPERTY
W
SciTegic.value.DoubleValue
-1.432

@<SCITEGIC>MOL_PROPERTY
W(PB)
SciTegic.value.DoubleValue
-3.549

@<SCITEGIC>MOL_PROPERTY
W(SA)
SciTegic.value.DoubleValue
2.118

@<SCITEGIC>MOL_PROPERTY
Valence
SciTegic.value.DoubleValue
17.246

@<SCITEGIC>MOL_PROPERTY
Coulomb
SciTegic.value.DoubleValue
-9.242

@<SCITEGIC>MOL_PROPERTY
VdW
SciTegic.value.DoubleValue
2.671

@<SCITEGIC>MOL_PROPERTY
VdW6
SciTegic.value.DoubleValue
-13.410

@<SCITEGIC>MOL_PROPERTY
VdW12
SciTegic.value.DoubleValue
16.081

@<SCITEGIC>MOL_PROPERTY
Bond
SciTegic.value.DoubleValue
0.483

@<SCITEGIC>MOL_PROPERTY
Angle
SciTegic.value.DoubleValue
6.110

@<SCITEGIC>MOL_PROPERTY
Pdih
SciTegic.value.DoubleValue
10.652

@<SCITEGIC>MOL_PROPERTY
Idih
SciTegic.value.DoubleValue
0.000

@<SCITEGIC>MOL_PROPERTY
Tether
SciTegic.value.DoubleValue
0.000

@<TRIPOS>MOLECULE
guest-s17_vm2.mol2 : vm2 ligand conformer 22
          25          25           1
SMALL
USER_CHARGES
 
@<TRIPOS>ATOM
       1    C1      20.145972   19.063923   20.750243 C.3        1 MOL1        -0.1684
       2    H1      20.276688   19.088276   19.659742 H          1 MOL1         0.0833
       3    H2      19.290085   18.398397   20.920757 H          1 MOL1         0.0833
       4    C2      21.443634   18.475379   21.362159 C.3        1 MOL1        -0.1684
       5    H3      21.981095   17.935821   20.570315 H          1 MOL1         0.0833
       6    H4      22.127564   19.278861   21.657931 H          1 MOL1         0.0833
       7    C3      21.231697   17.478741   22.530518 C.3        1 MOL1        -0.1684
       8    H5      22.196463   17.295257   23.022537 H          1 MOL1         0.0833
       9    H6      20.931211   16.514684   22.097904 H          1 MOL1         0.0833
      10    C4      20.173689   17.856314   23.599574 C.3        1 MOL1        -0.1760
      11    H7      19.182827   17.944707   23.141353 H          1 MOL1         0.0833
      12    H8      20.088865   17.003951   24.286406 H          1 MOL1         0.0833
      13    C5      20.477246   19.106445   24.458612 C.3        1 MOL1         0.1219
      14    H9      21.453652   18.958987   24.942083 H          1 MOL1         0.0790
      15    C6      20.515558   20.466600   23.716183 C.3        1 MOL1        -0.1760
      16    H10     20.457089   21.261197   24.471520 H          1 MOL1         0.0833
      17    H11     21.496460   20.612194   23.252043 H          1 MOL1         0.0833
      18    C7      19.386101   20.703100   22.677199 C.3        1 MOL1        -0.1684
      19    H12     19.051102   21.743815   22.783424 H          1 MOL1         0.0833
      20    H13     18.502839   20.093701   22.908464 H          1 MOL1         0.0833
      21    C8      19.814782   20.511458   21.198899 C.3        1 MOL1        -0.1684
      22    H14     20.670366   21.164887   20.980371 H          1 MOL1         0.0833
      23    H15     18.996023   20.877740   20.564685 H          1 MOL1         0.0833
      24    O1      19.475322   19.181040   25.466613 O.3        1 MOL1        -0.5508
      25    H16     19.684479   19.964886   26.015166 H          1 MOL1         0.3780
@<TRIPOS>BOND
    1     1     2    1
    2     1     3    1
    3     1     4    1
    4     4     5    1
    5     4     6    1
    6     4     7    1
    7     7     8    1
    8     7     9    1
    9     7    10    1
   10    10    11    1
   11    10    12    1
   12    10    13    1
   13    13    14    1
   14    13    15    1
   15    15    16    1
   16    15    17    1
   17    15    18    1
   18    18    19    1
   19    18    20    1
   20     1    21    1
   21    18    21    1
   22    21    22    1
   23    21    23    1
   24    13    24    1
   25    24    25    1
@<TRIPOS>SUBSTRUCTURE
       1 MOL1            1 RESIDUE      1      MOL     
@<SCITEGIC>MOL_PROPERTY
VM2 Rank
SciTegic.value.IntegerValue
22

@<SCITEGIC>MOL_PROPERTY
Conf_Id
SciTegic.value.IntegerValue
1177

@<SCITEGIC>MOL_PROPERTY
Probability
SciTegic.value.DoubleValue
1.90

@<SCITEGIC>MOL_PROPERTY
Sum Probability
SciTegic.value.DoubleValue
68.32

@<SCITEGIC>MOL_PROPERTY
Delta G
SciTegic.value.DoubleValue
0.538

@<SCITEGIC>MOL_PROPERTY
G
SciTegic.value.DoubleValue
62.614

@<SCITEGIC>MOL_PROPERTY
E
SciTegic.value.DoubleValue
29.895

@<SCITEGIC>MOL_PROPERTY
-TS
SciTegic.value.DoubleValue
32.719

@<SCITEGIC>MOL_PROPERTY
U+W
SciTegic.value.DoubleValue
9.327

@<SCITEGIC>MOL_PROPERTY
U
SciTegic.value.DoubleValue
11.545

@<SCITEGIC>MOL_PROPERTY
W
SciTegic.value.DoubleValue
-2.217

@<SCITEGIC>MOL_PROPERTY
W(PB)
SciTegic.value.DoubleValue
-4.342

@<SCITEGIC>MOL_PROPERTY
W(SA)
SciTegic.value.DoubleValue
2.124

@<SCITEGIC>MOL_PROPERTY
Valence
SciTegic.value.DoubleValue
16.814

@<SCITEGIC>MOL_PROPERTY
Coulomb
SciTegic.value.DoubleValue
-7.999

@<SCITEGIC>MOL_PROPERTY
VdW
SciTegic.value.DoubleValue
2.729

@<SCITEGIC>MOL_PROPERTY
VdW6
SciTegic.value.DoubleValue
-12.749

@<SCITEGIC>MOL_PROPERTY
VdW12
SciTegic.value.DoubleValue
15.478

@<SCITEGIC>MOL_PROPERTY
Bond
SciTegic.value.DoubleValue
0.438

@<SCITEGIC>MOL_PROPERTY
Angle
SciTegic.value.DoubleValue
5.318

@<SCITEGIC>MOL_PROPERTY
Pdih
SciTegic.value.DoubleValue
11.059

@<SCITEGIC>MOL_PROPERTY
Idih
SciTegic.value.DoubleValue
0.000

@<SCITEGIC>MOL_PROPERTY
Tether
SciTegic.value.DoubleValue
0.000

@<TRIPOS>MOLECULE
guest-s17_vm2.mol2 : vm2 ligand conformer 23
          25          25           1
SMALL
USER_CHARGES
 
@<TRIPOS>ATOM
       1    C1      20.763942   19.246447   20.797814 C.3        1 MOL1        -0.1684
       2    H1      21.824075   19.433203   21.011656 H          1 MOL1         0.0833
       3    H2      20.716067   19.076860   19.713473 H          1 MOL1         0.0833
       4    C2      20.271656   17.951587   21.494471 C.3        1 MOL1        -0.1684
       5    H3      19.206542   18.028058   21.740952 H          1 MOL1         0.0833
       6    H4      20.328481   17.128418   20.769240 H          1 MOL1         0.0833
       7    C3      21.086961   17.521716   22.740117 C.3        1 MOL1        -0.1684
       8    H5      22.022063   17.064706   22.389041 H          1 MOL1         0.0833
       9    H6      20.543343   16.721878   23.260829 H          1 MOL1         0.0833
      10    C4      21.463743   18.635595   23.753517 C.3        1 MOL1        -0.1760
      11    H7      22.109037   18.182666   24.517201 H          1 MOL1         0.0833
      12    H8      22.102153   19.381240   23.267833 H          1 MOL1         0.0833
      13    C5      20.302509   19.346861   24.492239 C.3        1 MOL1         0.1219
      14    H9      20.767549   20.045413   25.202800 H          1 MOL1         0.0790
      15    C6      19.326818   20.176846   23.623232 C.3        1 MOL1        -0.1760
      16    H10     18.562553   19.531475   23.176679 H          1 MOL1         0.0833
      17    H11     18.772033   20.828975   24.310180 H          1 MOL1         0.0833
      18    C7      19.985691   21.072653   22.539895 C.3        1 MOL1        -0.1684
      19    H12     21.020497   21.322615   22.806814 H          1 MOL1         0.0833
      20    H13     19.451270   22.032491   22.535461 H          1 MOL1         0.0833
      21    C8      19.911889   20.507313   21.097519 C.3        1 MOL1        -0.1684
      22    H14     20.237944   21.300781   20.411310 H          1 MOL1         0.0833
      23    H15     18.863203   20.307416   20.838445 H          1 MOL1         0.0833
      24    O1      19.550790   18.383982   25.221194 O.3        1 MOL1        -0.5508
      25    H16     20.196718   17.850513   25.727839 H          1 MOL1         0.3780
@<TRIPOS>BOND
    1     1     2    1
    2     1     3    1
    3     1     4    1
    4     4     5    1
    5     4     6    1
    6     4     7    1
    7     7     8    1
    8     7     9    1
    9     7    10    1
   10    10    11    1
   11    10    12    1
   12    10    13    1
   13    13    14    1
   14    13    15    1
   15    15    16    1
   16    15    17    1
   17    15    18    1
   18    18    19    1
   19    18    20    1
   20     1    21    1
   21    18    21    1
   22    21    22    1
   23    21    23    1
   24    13    24    1
   25    24    25    1
@<TRIPOS>SUBSTRUCTURE
       1 MOL1            1 RESIDUE      1      MOL     
@<SCITEGIC>MOL_PROPERTY
VM2 Rank
SciTegic.value.IntegerValue
23

@<SCITEGIC>MOL_PROPERTY
Conf_Id
SciTegic.value.IntegerValue
1854

@<SCITEGIC>MOL_PROPERTY
Probability
SciTegic.value.DoubleValue
1.62

@<SCITEGIC>MOL_PROPERTY
Sum Probability
SciTegic.value.DoubleValue
69.94

@<SCITEGIC>MOL_PROPERTY
Delta G
SciTegic.value.DoubleValue
0.635

@<SCITEGIC>MOL_PROPERTY
G
SciTegic.value.DoubleValue
62.710

@<SCITEGIC>MOL_PROPERTY
E
SciTegic.value.DoubleValue
30.025

@<SCITEGIC>MOL_PROPERTY
-TS
SciTegic.value.DoubleValue
32.685

@<SCITEGIC>MOL_PROPERTY
U+W
SciTegic.value.DoubleValue
9.457

@<SCITEGIC>MOL_PROPERTY
U
SciTegic.value.DoubleValue
11.668

@<SCITEGIC>MOL_PROPERTY
W
SciTegic.value.DoubleValue
-2.211

@<SCITEGIC>MOL_PROPERTY
W(PB)
SciTegic.value.DoubleValue
-4.346

@<SCITEGIC>MOL_PROPERTY
W(SA)
SciTegic.value.DoubleValue
2.135

@<SCITEGIC>MOL_PROPERTY
Valence
SciTegic.value.DoubleValue
16.811

@<SCITEGIC>MOL_PROPERTY
Coulomb
SciTegic.value.DoubleValue
-7.706

@<SCITEGIC>MOL_PROPERTY
VdW
SciTegic.value.DoubleValue
2.563

@<SCITEGIC>MOL_PROPERTY
VdW6
SciTegic.value.DoubleValue
-12.921

@<SCITEGIC>MOL_PROPERTY
VdW12
SciTegic.value.DoubleValue
15.484

@<SCITEGIC>MOL_PROPERTY
Bond
SciTegic.value.DoubleValue
0.437

@<SCITEGIC>MOL_PROPERTY
Angle
SciTegic.value.DoubleValue
5.466

@<SCITEGIC>MOL_PROPERTY
Pdih
SciTegic.value.DoubleValue
10.908

@<SCITEGIC>MOL_PROPERTY
Idih
SciTegic.value.DoubleValue
0.000

@<SCITEGIC>MOL_PROPERTY
Tether
SciTegic.value.DoubleValue
0.000

@<TRIPOS>MOLECULE
guest-s17_vm2.mol2 : vm2 ligand conformer 24
          25          25           1
SMALL
USER_CHARGES
 
@<TRIPOS>ATOM
       1    C1      20.659658   19.500336   20.797557 C.3        1 MOL1        -0.1684
       2    H1      21.535538   20.126179   21.011199 H          1 MOL1         0.0833
       3    H2      20.508247   19.580461   19.712429 H          1 MOL1         0.0833
       4    C2      20.960366   18.010050   21.104513 C.3        1 MOL1        -0.1684
       5    H3      20.083263   17.401390   20.845587 H          1 MOL1         0.0833
       6    H4      21.756649   17.683229   20.421939 H          1 MOL1         0.0833
       7    C3      21.411134   17.672483   22.549629 C.3        1 MOL1        -0.1684
       8    H5      22.314165   18.236190   22.816682 H          1 MOL1         0.0833
       9    H6      21.720797   16.618431   22.550593 H          1 MOL1         0.0833
      10    C4      20.307386   17.835444   23.629159 C.3        1 MOL1        -0.1760
      11    H7      19.312630   17.741081   23.180191 H          1 MOL1         0.0833
      12    H8      20.381429   16.985599   24.319981 H          1 MOL1         0.0833
      13    C5      20.397233   19.116796   24.492926 C.3        1 MOL1         0.1219
      14    H9      21.219321   18.961634   25.206529 H          1 MOL1         0.0790
      15    C6      20.706442   20.440287   23.749397 C.3        1 MOL1        -0.1760
      16    H10     20.833788   21.221226   24.510106 H          1 MOL1         0.0833
      17    H11     21.687099   20.370576   23.266803 H          1 MOL1         0.0833
      18    C7      19.650956   20.948302   22.730804 C.3        1 MOL1        -0.1684
      19    H12     19.981788   21.933941   22.376411 H          1 MOL1         0.0833
      20    H13     18.698040   21.123777   23.248068 H          1 MOL1         0.0833
      21    C8      19.389292   20.060219   21.488233 C.3        1 MOL1        -0.1684
      22    H14     18.844258   20.674772   20.758812 H          1 MOL1         0.0833
      23    H15     18.696306   19.248235   21.736267 H          1 MOL1         0.0833
      24    O1      19.181533   19.259084   25.217782 O.3        1 MOL1        -0.5508
      25    H16     19.252587   20.095894   25.720973 H          1 MOL1         0.3780
@<TRIPOS>BOND
    1     1     2    1
    2     1     3    1
    3     1     4    1
    4     4     5    1
    5     4     6    1
    6     4     7    1
    7     7     8    1
    8     7     9    1
    9     7    10    1
   10    10    11    1
   11    10    12    1
   12    10    13    1
   13    13    14    1
   14    13    15    1
   15    15    16    1
   16    15    17    1
   17    15    18    1
   18    18    19    1
   19    18    20    1
   20     1    21    1
   21    18    21    1
   22    21    22    1
   23    21    23    1
   24    13    24    1
   25    24    25    1
@<TRIPOS>SUBSTRUCTURE
       1 MOL1            1 RESIDUE      1      MOL     
@<SCITEGIC>MOL_PROPERTY
VM2 Rank
SciTegic.value.IntegerValue
24

@<SCITEGIC>MOL_PROPERTY
Conf_Id
SciTegic.value.IntegerValue
744

@<SCITEGIC>MOL_PROPERTY
Probability
SciTegic.value.DoubleValue
1.58

@<SCITEGIC>MOL_PROPERTY
Sum Probability
SciTegic.value.DoubleValue
71.52

@<SCITEGIC>MOL_PROPERTY
Delta G
SciTegic.value.DoubleValue
0.648

@<SCITEGIC>MOL_PROPERTY
G
SciTegic.value.DoubleValue
62.723

@<SCITEGIC>MOL_PROPERTY
E
SciTegic.value.DoubleValue
30.035

@<SCITEGIC>MOL_PROPERTY
-TS
SciTegic.value.DoubleValue
32.688

@<SCITEGIC>MOL_PROPERTY
U+W
SciTegic.value.DoubleValue
9.467

@<SCITEGIC>MOL_PROPERTY
U
SciTegic.value.DoubleValue
11.668

@<SCITEGIC>MOL_PROPERTY
W
SciTegic.value.DoubleValue
-2.201

@<SCITEGIC>MOL_PROPERTY
W(PB)
SciTegic.value.DoubleValue
-4.334

@<SCITEGIC>MOL_PROPERTY
W(SA)
SciTegic.value.DoubleValue
2.133

@<SCITEGIC>MOL_PROPERTY
Valence
SciTegic.value.DoubleValue
16.811

@<SCITEGIC>MOL_PROPERTY
Coulomb
SciTegic.value.DoubleValue
-7.706

@<SCITEGIC>MOL_PROPERTY
VdW
SciTegic.value.DoubleValue
2.563

@<SCITEGIC>MOL_PROPERTY
VdW6
SciTegic.value.DoubleValue
-12.922

@<SCITEGIC>MOL_PROPERTY
VdW12
SciTegic.value.DoubleValue
15.484

@<SCITEGIC>MOL_PROPERTY
Bond
SciTegic.value.DoubleValue
0.437

@<SCITEGIC>MOL_PROPERTY
Angle
SciTegic.value.DoubleValue
5.466

@<SCITEGIC>MOL_PROPERTY
Pdih
SciTegic.value.DoubleValue
10.908

@<SCITEGIC>MOL_PROPERTY
Idih
SciTegic.value.DoubleValue
0.000

@<SCITEGIC>MOL_PROPERTY
Tether
SciTegic.value.DoubleValue
0.000

@<TRIPOS>MOLECULE
guest-s17_vm2.mol2 : vm2 ligand conformer 25
          25          25           1
SMALL
USER_CHARGES
 
@<TRIPOS>ATOM
       1    C1      20.152328   19.065451   20.747640 C.3        1 MOL1        -0.1684
       2    H1      20.289673   19.091058   19.657981 H          1 MOL1         0.0833
       3    H2      19.296339   18.398608   20.912521 H          1 MOL1         0.0833
       4    C2      21.446790   18.478562   21.367430 C.3        1 MOL1        -0.1684
       5    H3      21.992549   17.943931   20.577923 H          1 MOL1         0.0833
       6    H4      22.125473   19.282810   21.673132 H          1 MOL1         0.0833
       7    C3      21.226641   17.476815   22.529424 C.3        1 MOL1        -0.1684
       8    H5      22.189385   17.286071   23.022710 H          1 MOL1         0.0833
       9    H6      20.922392   16.516537   22.090989 H          1 MOL1         0.0833
      10    C4      20.168429   17.855654   23.597552 C.3        1 MOL1        -0.1760
      11    H7      19.179178   17.948693   23.136370 H          1 MOL1         0.0833
      12    H8      20.081309   16.999121   24.278594 H          1 MOL1         0.0833
      13    C5      20.477573   19.105438   24.456210 C.3        1 MOL1         0.1219
      14    H9      21.459074   18.961277   24.930275 H          1 MOL1         0.0790
      15    C6      20.507208   20.467708   23.717290 C.3        1 MOL1        -0.1760
      16    H10     20.432360   21.253487   24.480842 H          1 MOL1         0.0833
      17    H11     21.490056   20.627565   23.262138 H          1 MOL1         0.0833
      18    C7      19.381797   20.701308   22.672988 C.3        1 MOL1        -0.1684
      19    H12     19.044831   21.741415   22.778546 H          1 MOL1         0.0833
      20    H13     18.498537   20.091195   22.901783 H          1 MOL1         0.0833
      21    C8      19.816467   20.511728   21.196171 C.3        1 MOL1        -0.1684
      22    H14     20.671743   21.166924   20.981796 H          1 MOL1         0.0833
      23    H15     18.999590   20.877089   20.559018 H          1 MOL1         0.0833
      24    O1      19.486767   19.180337   25.475295 O.3        1 MOL1        -0.5508
      25    H16     19.525366   18.335892   25.970039 H          1 MOL1         0.3780
@<TRIPOS>BOND
    1     1     2    1
    2     1     3    1
    3     1     4    1
    4     4     5    1
    5     4     6    1
    6     4     7    1
    7     7     8    1
    8     7     9    1
    9     7    10    1
   10    10    11    1
   11    10    12    1
   12    10    13    1
   13    13    14    1
   14    13    15    1
   15    15    16    1
   16    15    17    1
   17    15    18    1
   18    18    19    1
   19    18    20    1
   20     1    21    1
   21    18    21    1
   22    21    22    1
   23    21    23    1
   24    13    24    1
   25    24    25    1
@<TRIPOS>SUBSTRUCTURE
       1 MOL1            1 RESIDUE      1      MOL     
@<SCITEGIC>MOL_PROPERTY
VM2 Rank
SciTegic.value.IntegerValue
25

@<SCITEGIC>MOL_PROPERTY
Conf_Id
SciTegic.value.IntegerValue
1657

@<SCITEGIC>MOL_PROPERTY
Probability
SciTegic.value.DoubleValue
1.55

@<SCITEGIC>MOL_PROPERTY
Sum Probability
SciTegic.value.DoubleValue
73.07

@<SCITEGIC>MOL_PROPERTY
Delta G
SciTegic.value.DoubleValue
0.661

@<SCITEGIC>MOL_PROPERTY
G
SciTegic.value.DoubleValue
62.736

@<SCITEGIC>MOL_PROPERTY
E
SciTegic.value.DoubleValue
29.993

@<SCITEGIC>MOL_PROPERTY
-TS
SciTegic.value.DoubleValue
32.743

@<SCITEGIC>MOL_PROPERTY
U+W
SciTegic.value.DoubleValue
9.425

@<SCITEGIC>MOL_PROPERTY
U
SciTegic.value.DoubleValue
11.687

@<SCITEGIC>MOL_PROPERTY
W
SciTegic.value.DoubleValue
-2.262

@<SCITEGIC>MOL_PROPERTY
W(PB)
SciTegic.value.DoubleValue
-4.388

@<SCITEGIC>MOL_PROPERTY
W(SA)
SciTegic.value.DoubleValue
2.126

@<SCITEGIC>MOL_PROPERTY
Valence
SciTegic.value.DoubleValue
16.789

@<SCITEGIC>MOL_PROPERTY
Coulomb
SciTegic.value.DoubleValue
-7.836

@<SCITEGIC>MOL_PROPERTY
VdW
SciTegic.value.DoubleValue
2.734

@<SCITEGIC>MOL_PROPERTY
VdW6
SciTegic.value.DoubleValue
-12.729

@<SCITEGIC>MOL_PROPERTY
VdW12
SciTegic.value.DoubleValue
15.463

@<SCITEGIC>MOL_PROPERTY
Bond
SciTegic.value.DoubleValue
0.436

@<SCITEGIC>MOL_PROPERTY
Angle
SciTegic.value.DoubleValue
5.314

@<SCITEGIC>MOL_PROPERTY
Pdih
SciTegic.value.DoubleValue
11.039

@<SCITEGIC>MOL_PROPERTY
Idih
SciTegic.value.DoubleValue
0.000

@<SCITEGIC>MOL_PROPERTY
Tether
SciTegic.value.DoubleValue
0.000

@<TRIPOS>MOLECULE
guest-s17_vm2.mol2 : vm2 ligand conformer 26
          25          25           1
SMALL
USER_CHARGES
 
@<TRIPOS>ATOM
       1    C1      20.078939   19.169940   20.749596 C.3        1 MOL1        -0.1684
       2    H1      19.009535   18.996353   20.925164 H          1 MOL1         0.0833
       3    H2      20.182130   19.240986   19.658184 H          1 MOL1         0.0833
       4    C2      20.916220   17.946400   21.205246 C.3        1 MOL1        -0.1684
       5    H3      20.624564   17.091480   20.580112 H          1 MOL1         0.0833
       6    H4      21.976184   18.126818   20.980166 H          1 MOL1         0.0833
       7    C3      20.772273   17.515383   22.688273 C.3        1 MOL1        -0.1684
       8    H5      21.307849   16.562954   22.800292 H          1 MOL1         0.0833
       9    H6      19.726521   17.283977   22.928241 H          1 MOL1         0.0833
      10    C4      21.373469   18.511918   23.716458 C.3        1 MOL1        -0.1760
      11    H7      21.905729   17.932069   24.482315 H          1 MOL1         0.0833
      12    H8      22.154447   19.119630   23.247984 H          1 MOL1         0.0833
      13    C5      20.359337   19.423583   24.453379 C.3        1 MOL1         0.1219
      14    H9      20.923817   20.247254   24.913586 H          1 MOL1         0.0790
      15    C6      19.225014   20.035637   23.596919 C.3        1 MOL1        -0.1760
      16    H10     18.617839   19.241134   23.149634 H          1 MOL1         0.0833
      17    H11     18.542638   20.561058   24.277620 H          1 MOL1         0.0833
      18    C7      19.656794   21.057496   22.513590 C.3        1 MOL1        -0.1684
      19    H12     18.741724   21.481348   22.077787 H          1 MOL1         0.0833
      20    H13     20.174557   21.899230   22.993166 H          1 MOL1         0.0833
      21    C8      20.532126   20.525641   21.350352 C.3        1 MOL1        -0.1684
      22    H14     21.585847   20.481139   21.647958 H          1 MOL1         0.0833
      23    H15     20.503769   21.280310   20.552432 H          1 MOL1         0.0833
      24    O1      19.749828   18.657002   25.486188 O.3        1 MOL1        -0.5508
      25    H16     19.160279   19.264392   25.978992 H          1 MOL1         0.3780
@<TRIPOS>BOND
    1     1     2    1
    2     1     3    1
    3     1     4    1
    4     4     5    1
    5     4     6    1
    6     4     7    1
    7     7     8    1
    8     7     9    1
    9     7    10    1
   10    10    11    1
   11    10    12    1
   12    10    13    1
   13    13    14    1
   14    13    15    1
   15    15    16    1
   16    15    17    1
   17    15    18    1
   18    18    19    1
   19    18    20    1
   20     1    21    1
   21    18    21    1
   22    21    22    1
   23    21    23    1
   24    13    24    1
   25    24    25    1
@<TRIPOS>SUBSTRUCTURE
       1 MOL1            1 RESIDUE      1      MOL     
@<SCITEGIC>MOL_PROPERTY
VM2 Rank
SciTegic.value.IntegerValue
26

@<SCITEGIC>MOL_PROPERTY
Conf_Id
SciTegic.value.IntegerValue
1224

@<SCITEGIC>MOL_PROPERTY
Probability
SciTegic.value.DoubleValue
1.46

@<SCITEGIC>MOL_PROPERTY
Sum Probability
SciTegic.value.DoubleValue
74.53

@<SCITEGIC>MOL_PROPERTY
Delta G
SciTegic.value.DoubleValue
0.696

@<SCITEGIC>MOL_PROPERTY
G
SciTegic.value.DoubleValue
62.771

@<SCITEGIC>MOL_PROPERTY
E
SciTegic.value.DoubleValue
30.029

@<SCITEGIC>MOL_PROPERTY
-TS
SciTegic.value.DoubleValue
32.742

@<SCITEGIC>MOL_PROPERTY
U+W
SciTegic.value.DoubleValue
9.462

@<SCITEGIC>MOL_PROPERTY
U
SciTegic.value.DoubleValue
11.687

@<SCITEGIC>MOL_PROPERTY
W
SciTegic.value.DoubleValue
-2.226

@<SCITEGIC>MOL_PROPERTY
W(PB)
SciTegic.value.DoubleValue
-4.373

@<SCITEGIC>MOL_PROPERTY
W(SA)
SciTegic.value.DoubleValue
2.147

@<SCITEGIC>MOL_PROPERTY
Valence
SciTegic.value.DoubleValue
16.789

@<SCITEGIC>MOL_PROPERTY
Coulomb
SciTegic.value.DoubleValue
-7.836

@<SCITEGIC>MOL_PROPERTY
VdW
SciTegic.value.DoubleValue
2.734

@<SCITEGIC>MOL_PROPERTY
VdW6
SciTegic.value.DoubleValue
-12.729

@<SCITEGIC>MOL_PROPERTY
VdW12
SciTegic.value.DoubleValue
15.463

@<SCITEGIC>MOL_PROPERTY
Bond
SciTegic.value.DoubleValue
0.436

@<SCITEGIC>MOL_PROPERTY
Angle
SciTegic.value.DoubleValue
5.314

@<SCITEGIC>MOL_PROPERTY
Pdih
SciTegic.value.DoubleValue
11.039

@<SCITEGIC>MOL_PROPERTY
Idih
SciTegic.value.DoubleValue
0.000

@<SCITEGIC>MOL_PROPERTY
Tether
SciTegic.value.DoubleValue
0.000

@<TRIPOS>MOLECULE
guest-s17_vm2.mol2 : vm2 ligand conformer 27
          25          25           1
SMALL
USER_CHARGES
 
@<TRIPOS>ATOM
       1    C1      21.055478   19.512961   21.007003 C.3        1 MOL1        -0.1684
       2    H1      21.365269   19.741642   19.977943 H          1 MOL1         0.0833
       3    H2      21.845141   19.931534   21.644647 H          1 MOL1         0.0833
       4    C2      21.011486   17.971473   21.141366 C.3        1 MOL1        -0.1684
       5    H3      20.088633   17.581705   20.690686 H          1 MOL1         0.0833
       6    H4      21.831125   17.554462   20.540247 H          1 MOL1         0.0833
       7    C3      21.167769   17.424615   22.580641 C.3        1 MOL1        -0.1684
       8    H5      22.162593   17.675890   22.973144 H          1 MOL1         0.0833
       9    H6      21.140023   16.327839   22.522902 H          1 MOL1         0.0833
      10    C4      20.072935   17.883088   23.572845 C.3        1 MOL1        -0.1760
      11    H7      19.095192   17.874422   23.075266 H          1 MOL1         0.0833
      12    H8      19.998922   17.123586   24.362766 H          1 MOL1         0.0833
      13    C5      20.357509   19.263556   24.221884 C.3        1 MOL1         0.1219
      14    H9      21.358852   19.611566   23.932405 H          1 MOL1         0.0790
      15    C6      19.331945   20.352577   23.834922 C.3        1 MOL1        -0.1760
      16    H10     18.324531   19.919357   23.790075 H          1 MOL1         0.0833
      17    H11     19.297551   21.100679   24.638364 H          1 MOL1         0.0833
      18    C7      19.644154   21.103279   22.516725 C.3        1 MOL1        -0.1684
      19    H12     20.582322   21.665554   22.618996 H          1 MOL1         0.0833
      20    H13     18.860414   21.859854   22.374254 H          1 MOL1         0.0833
      21    C8      19.693570   20.218778   21.247843 C.3        1 MOL1        -0.1684
      22    H14     19.505468   20.873258   20.385569 H          1 MOL1         0.0833
      23    H15     18.863588   19.499916   21.250873 H          1 MOL1         0.0833
      24    O1      20.329154   19.112675   25.636771 O.3        1 MOL1        -0.5508
      25    H16     21.026884   18.462468   25.862684 H          1 MOL1         0.3780
@<TRIPOS>BOND
    1     1     2    1
    2     1     3    1
    3     1     4    1
    4     4     5    1
    5     4     6    1
    6     4     7    1
    7     7     8    1
    8     7     9    1
    9     7    10    1
   10    10    11    1
   11    10    12    1
   12    10    13    1
   13    13    14    1
   14    13    15    1
   15    15    16    1
   16    15    17    1
   17    15    18    1
   18    18    19    1
   19    18    20    1
   20     1    21    1
   21    18    21    1
   22    21    22    1
   23    21    23    1
   24    13    24    1
   25    24    25    1
@<TRIPOS>SUBSTRUCTURE
       1 MOL1            1 RESIDUE      1      MOL     
@<SCITEGIC>MOL_PROPERTY
VM2 Rank
SciTegic.value.IntegerValue
27

@<SCITEGIC>MOL_PROPERTY
Conf_Id
SciTegic.value.IntegerValue
2011

@<SCITEGIC>MOL_PROPERTY
Probability
SciTegic.value.DoubleValue
1.44

@<SCITEGIC>MOL_PROPERTY
Sum Probability
SciTegic.value.DoubleValue
75.98

@<SCITEGIC>MOL_PROPERTY
Delta G
SciTegic.value.DoubleValue
0.703

@<SCITEGIC>MOL_PROPERTY
G
SciTegic.value.DoubleValue
62.778

@<SCITEGIC>MOL_PROPERTY
E
SciTegic.value.DoubleValue
30.568

@<SCITEGIC>MOL_PROPERTY
-TS
SciTegic.value.DoubleValue
32.210

@<SCITEGIC>MOL_PROPERTY
U+W
SciTegic.value.DoubleValue
10.000

@<SCITEGIC>MOL_PROPERTY
U
SciTegic.value.DoubleValue
12.140

@<SCITEGIC>MOL_PROPERTY
W
SciTegic.value.DoubleValue
-2.139

@<SCITEGIC>MOL_PROPERTY
W(PB)
SciTegic.value.DoubleValue
-4.284

@<SCITEGIC>MOL_PROPERTY
W(SA)
SciTegic.value.DoubleValue
2.144

@<SCITEGIC>MOL_PROPERTY
Valence
SciTegic.value.DoubleValue
18.247

@<SCITEGIC>MOL_PROPERTY
Coulomb
SciTegic.value.DoubleValue
-8.720

@<SCITEGIC>MOL_PROPERTY
VdW
SciTegic.value.DoubleValue
2.612

@<SCITEGIC>MOL_PROPERTY
VdW6
SciTegic.value.DoubleValue
-11.959

@<SCITEGIC>MOL_PROPERTY
VdW12
SciTegic.value.DoubleValue
14.571

@<SCITEGIC>MOL_PROPERTY
Bond
SciTegic.value.DoubleValue
0.338

@<SCITEGIC>MOL_PROPERTY
Angle
SciTegic.value.DoubleValue
3.150

@<SCITEGIC>MOL_PROPERTY
Pdih
SciTegic.value.DoubleValue
14.759

@<SCITEGIC>MOL_PROPERTY
Idih
SciTegic.value.DoubleValue
0.000

@<SCITEGIC>MOL_PROPERTY
Tether
SciTegic.value.DoubleValue
0.000

@<TRIPOS>MOLECULE
guest-s17_vm2.mol2 : vm2 ligand conformer 28
          25          25           1
SMALL
USER_CHARGES
 
@<TRIPOS>ATOM
       1    C1      21.275971   19.616054   21.137829 C.3        1 MOL1        -0.1684
       2    H1      21.931109   19.894674   21.970949 H          1 MOL1         0.0833
       3    H2      21.855697   19.859574   20.237114 H          1 MOL1         0.0833
       4    C2      21.033699   18.086040   21.128895 C.3        1 MOL1        -0.1684
       5    H3      20.464684   17.814007   20.229602 H          1 MOL1         0.0833
       6    H4      22.012255   17.598812   21.019624 H          1 MOL1         0.0833
       7    C3      20.335679   17.473684   22.370084 C.3        1 MOL1        -0.1684
       8    H5      20.509704   16.389407   22.337494 H          1 MOL1         0.0833
       9    H6      19.247690   17.578973   22.290975 H          1 MOL1         0.0833
      10    C4      20.835671   18.003761   23.740414 C.3        1 MOL1        -0.1760
      11    H7      20.900936   17.142703   24.419058 H          1 MOL1         0.0833
      12    H8      21.859340   18.389495   23.662357 H          1 MOL1         0.0833
      13    C5      19.905835   19.042634   24.416155 C.3        1 MOL1         0.1219
      14    H9      18.894361   18.614932   24.467065 H          1 MOL1         0.0790
      15    C6      19.808967   20.431297   23.735930 C.3        1 MOL1        -0.1760
      16    H10     19.235683   21.079994   24.411784 H          1 MOL1         0.0833
      17    H11     20.798858   20.896896   23.657735 H          1 MOL1         0.0833
      18    C7      19.082191   20.437461   22.364603 C.3        1 MOL1        -0.1684
      19    H12     18.425454   21.317454   22.328380 H          1 MOL1         0.0833
      20    H13     18.400024   19.583218   22.287262 H          1 MOL1         0.0833
      21    C8      20.009418   20.507895   21.124420 C.3        1 MOL1        -0.1684
      22    H14     20.341571   21.549054   21.012336 H          1 MOL1         0.0833
      23    H15     19.419088   20.286284   20.225029 H          1 MOL1         0.0833
      24    O1      20.376567   19.244175   25.741669 O.3        1 MOL1        -0.5508
      25    H16     21.275350   19.624213   25.660755 H          1 MOL1         0.3780
@<TRIPOS>BOND
    1     1     2    1
    2     1     3    1
    3     1     4    1
    4     4     5    1
    5     4     6    1
    6     4     7    1
    7     7     8    1
    8     7     9    1
    9     7    10    1
   10    10    11    1
   11    10    12    1
   12    10    13    1
   13    13    14    1
   14    13    15    1
   15    15    16    1
   16    15    17    1
   17    15    18    1
   18    18    19    1
   19    18    20    1
   20     1    21    1
   21    18    21    1
   22    21    22    1
   23    21    23    1
   24    13    24    1
   25    24    25    1
@<TRIPOS>SUBSTRUCTURE
       1 MOL1            1 RESIDUE      1      MOL     
@<SCITEGIC>MOL_PROPERTY
VM2 Rank
SciTegic.value.IntegerValue
28

@<SCITEGIC>MOL_PROPERTY
Conf_Id
SciTegic.value.IntegerValue
600

@<SCITEGIC>MOL_PROPERTY
Probability
SciTegic.value.DoubleValue
1.38

@<SCITEGIC>MOL_PROPERTY
Sum Probability
SciTegic.value.DoubleValue
77.36

@<SCITEGIC>MOL_PROPERTY
Delta G
SciTegic.value.DoubleValue
0.728

@<SCITEGIC>MOL_PROPERTY
G
SciTegic.value.DoubleValue
62.804

@<SCITEGIC>MOL_PROPERTY
E
SciTegic.value.DoubleValue
30.161

@<SCITEGIC>MOL_PROPERTY
-TS
SciTegic.value.DoubleValue
32.642

@<SCITEGIC>MOL_PROPERTY
U+W
SciTegic.value.DoubleValue
9.594

@<SCITEGIC>MOL_PROPERTY
U
SciTegic.value.DoubleValue
11.413

@<SCITEGIC>MOL_PROPERTY
W
SciTegic.value.DoubleValue
-1.819

@<SCITEGIC>MOL_PROPERTY
W(PB)
SciTegic.value.DoubleValue
-3.929

@<SCITEGIC>MOL_PROPERTY
W(SA)
SciTegic.value.DoubleValue
2.110

@<SCITEGIC>MOL_PROPERTY
Valence
SciTegic.value.DoubleValue
17.496

@<SCITEGIC>MOL_PROPERTY
Coulomb
SciTegic.value.DoubleValue
-8.736

@<SCITEGIC>MOL_PROPERTY
VdW
SciTegic.value.DoubleValue
2.653

@<SCITEGIC>MOL_PROPERTY
VdW6
SciTegic.value.DoubleValue
-12.485

@<SCITEGIC>MOL_PROPERTY
VdW12
SciTegic.value.DoubleValue
15.138

@<SCITEGIC>MOL_PROPERTY
Bond
SciTegic.value.DoubleValue
0.414

@<SCITEGIC>MOL_PROPERTY
Angle
SciTegic.value.DoubleValue
5.295

@<SCITEGIC>MOL_PROPERTY
Pdih
SciTegic.value.DoubleValue
11.787

@<SCITEGIC>MOL_PROPERTY
Idih
SciTegic.value.DoubleValue
0.000

@<SCITEGIC>MOL_PROPERTY
Tether
SciTegic.value.DoubleValue
0.000

@<TRIPOS>MOLECULE
guest-s17_vm2.mol2 : vm2 ligand conformer 29
          25          25           1
SMALL
USER_CHARGES
 
@<TRIPOS>ATOM
       1    C1      19.706373   18.990775   20.935754 C.3        1 MOL1        -0.1684
       2    H1      18.875862   18.677691   21.578680 H          1 MOL1         0.0833
       3    H2      19.330879   18.853632   19.912605 H          1 MOL1         0.0833
       4    C2      20.915608   18.039031   21.113499 C.3        1 MOL1        -0.1684
       5    H3      20.582695   17.029214   20.837225 H          1 MOL1         0.0833
       6    H4      21.695549   18.303711   20.386772 H          1 MOL1         0.0833
       7    C3      21.550096   17.958913   22.525493 C.3        1 MOL1        -0.1684
       8    H5      22.258428   18.781434   22.676230 H          1 MOL1         0.0833
       9    H6      22.171774   17.053406   22.549955 H          1 MOL1         0.0833
      10    C4      20.541087   17.886298   23.702753 C.3        1 MOL1        -0.1760
      11    H7      19.575288   17.486139   23.370551 H          1 MOL1         0.0833
      12    H8      20.929329   17.148776   24.417366 H          1 MOL1         0.0833
      13    C5      20.341621   19.215460   24.474070 C.3        1 MOL1         0.1219
      14    H9      21.329666   19.586832   24.782014 H          1 MOL1         0.0790
      15    C6      19.616610   20.352246   23.711190 C.3        1 MOL1        -0.1760
      16    H10     18.623968   20.022144   23.381819 H          1 MOL1         0.0833
      17    H11     19.427465   21.154306   24.436952 H          1 MOL1         0.0833
      18    C7      20.420623   20.970776   22.536220 C.3        1 MOL1        -0.1684
      19    H12     21.495726   20.818346   22.684084 H          1 MOL1         0.0833
      20    H13     20.290904   22.061219   22.568672 H          1 MOL1         0.0833
      21    C8      19.993470   20.501620   21.121882 C.3        1 MOL1        -0.1684
      22    H14     19.078767   21.045888   20.849903 H          1 MOL1         0.0833
      23    H15     20.754500   20.818659   20.396070 H          1 MOL1         0.0833
      24    O1      19.578511   18.927882   25.639140 O.3        1 MOL1        -0.5508
      25    H16     20.080202   18.257303   26.147841 H          1 MOL1         0.3780
@<TRIPOS>BOND
    1     1     2    1
    2     1     3    1
    3     1     4    1
    4     4     5    1
    5     4     6    1
    6     4     7    1
    7     7     8    1
    8     7     9    1
    9     7    10    1
   10    10    11    1
   11    10    12    1
   12    10    13    1
   13    13    14    1
   14    13    15    1
   15    15    16    1
   16    15    17    1
   17    15    18    1
   18    18    19    1
   19    18    20    1
   20     1    21    1
   21    18    21    1
   22    21    22    1
   23    21    23    1
   24    13    24    1
   25    24    25    1
@<TRIPOS>SUBSTRUCTURE
       1 MOL1            1 RESIDUE      1      MOL     
@<SCITEGIC>MOL_PROPERTY
VM2 Rank
SciTegic.value.IntegerValue
29

@<SCITEGIC>MOL_PROPERTY
Conf_Id
SciTegic.value.IntegerValue
1971

@<SCITEGIC>MOL_PROPERTY
Probability
SciTegic.value.DoubleValue
1.28

@<SCITEGIC>MOL_PROPERTY
Sum Probability
SciTegic.value.DoubleValue
78.64

@<SCITEGIC>MOL_PROPERTY
Delta G
SciTegic.value.DoubleValue
0.777

@<SCITEGIC>MOL_PROPERTY
G
SciTegic.value.DoubleValue
62.852

@<SCITEGIC>MOL_PROPERTY
E
SciTegic.value.DoubleValue
30.198

@<SCITEGIC>MOL_PROPERTY
-TS
SciTegic.value.DoubleValue
32.655

@<SCITEGIC>MOL_PROPERTY
U+W
SciTegic.value.DoubleValue
9.630

@<SCITEGIC>MOL_PROPERTY
U
SciTegic.value.DoubleValue
11.876

@<SCITEGIC>MOL_PROPERTY
W
SciTegic.value.DoubleValue
-2.246

@<SCITEGIC>MOL_PROPERTY
W(PB)
SciTegic.value.DoubleValue
-4.376

@<SCITEGIC>MOL_PROPERTY
W(SA)
SciTegic.value.DoubleValue
2.130

@<SCITEGIC>MOL_PROPERTY
Valence
SciTegic.value.DoubleValue
17.153

@<SCITEGIC>MOL_PROPERTY
Coulomb
SciTegic.value.DoubleValue
-7.966

@<SCITEGIC>MOL_PROPERTY
VdW
SciTegic.value.DoubleValue
2.689

@<SCITEGIC>MOL_PROPERTY
VdW6
SciTegic.value.DoubleValue
-12.458

@<SCITEGIC>MOL_PROPERTY
VdW12
SciTegic.value.DoubleValue
15.147

@<SCITEGIC>MOL_PROPERTY
Bond
SciTegic.value.DoubleValue
0.421

@<SCITEGIC>MOL_PROPERTY
Angle
SciTegic.value.DoubleValue
5.257

@<SCITEGIC>MOL_PROPERTY
Pdih
SciTegic.value.DoubleValue
11.475

@<SCITEGIC>MOL_PROPERTY
Idih
SciTegic.value.DoubleValue
0.000

@<SCITEGIC>MOL_PROPERTY
Tether
SciTegic.value.DoubleValue
0.000

@<TRIPOS>MOLECULE
guest-s17_vm2.mol2 : vm2 ligand conformer 30
          25          25           1
SMALL
USER_CHARGES
 
@<TRIPOS>ATOM
       1    C1      21.073307   19.515312   21.014800 C.3        1 MOL1        -0.1684
       2    H1      21.924480   19.766708   21.661072 H          1 MOL1         0.0833
       3    H2      21.464979   19.568405   19.989615 H          1 MOL1         0.0833
       4    C2      20.588776   18.059005   21.250111 C.3        1 MOL1        -0.1684
       5    H3      19.492707   17.994116   21.242167 H          1 MOL1         0.0833
       6    H4      20.919684   17.459555   20.390808 H          1 MOL1         0.0833
       7    C3      21.158288   17.390690   22.524417 C.3        1 MOL1        -0.1684
       8    H5      22.221434   17.643132   22.637403 H          1 MOL1         0.0833
       9    H6      21.126869   16.301916   22.381113 H          1 MOL1         0.0833
      10    C4      20.397541   17.709509   23.835252 C.3        1 MOL1        -0.1760
      11    H7      19.374353   17.316306   23.780025 H          1 MOL1         0.0833
      12    H8      20.887212   17.149531   24.643339 H          1 MOL1         0.0833
      13    C5      20.367552   19.205004   24.222664 C.3        1 MOL1         0.1219
      14    H9      21.330224   19.655146   23.942962 H          1 MOL1         0.0790
      15    C6      19.206479   19.994908   23.562446 C.3        1 MOL1        -0.1760
      16    H10     18.505422   19.318688   23.057583 H          1 MOL1         0.0833
      17    H11     18.615413   20.486601   24.346776 H          1 MOL1         0.0833
      18    C7      19.679978   21.087999   22.575390 C.3        1 MOL1        -0.1684
      19    H12     20.563648   21.602551   22.976932 H          1 MOL1         0.0833
      20    H13     18.894929   21.853809   22.510189 H          1 MOL1         0.0833
      21    C8      19.964222   20.588050   21.138641 C.3        1 MOL1        -0.1684
      22    H14     20.265771   21.459146   20.540889 H          1 MOL1         0.0833
      23    H15     19.035955   20.222923   20.678539 H          1 MOL1         0.0833
      24    O1      20.227855   19.292523   25.636278 O.3        1 MOL1        -0.5508
      25    H16     20.271224   20.245042   25.863125 H          1 MOL1         0.3780
@<TRIPOS>BOND
    1     1     2    1
    2     1     3    1
    3     1     4    1
    4     4     5    1
    5     4     6    1
    6     4     7    1
    7     7     8    1
    8     7     9    1
    9     7    10    1
   10    10    11    1
   11    10    12    1
   12    10    13    1
   13    13    14    1
   14    13    15    1
   15    15    16    1
   16    15    17    1
   17    15    18    1
   18    18    19    1
   19    18    20    1
   20     1    21    1
   21    18    21    1
   22    21    22    1
   23    21    23    1
   24    13    24    1
   25    24    25    1
@<TRIPOS>SUBSTRUCTURE
       1 MOL1            1 RESIDUE      1      MOL     
@<SCITEGIC>MOL_PROPERTY
VM2 Rank
SciTegic.value.IntegerValue
30

@<SCITEGIC>MOL_PROPERTY
Conf_Id
SciTegic.value.IntegerValue
1927

@<SCITEGIC>MOL_PROPERTY
Probability
SciTegic.value.DoubleValue
1.27

@<SCITEGIC>MOL_PROPERTY
Sum Probability
SciTegic.value.DoubleValue
79.91

@<SCITEGIC>MOL_PROPERTY
Delta G
SciTegic.value.DoubleValue
0.779

@<SCITEGIC>MOL_PROPERTY
G
SciTegic.value.DoubleValue
62.855

@<SCITEGIC>MOL_PROPERTY
E
SciTegic.value.DoubleValue
30.645

@<SCITEGIC>MOL_PROPERTY
-TS
SciTegic.value.DoubleValue
32.210

@<SCITEGIC>MOL_PROPERTY
U+W
SciTegic.value.DoubleValue
10.077

@<SCITEGIC>MOL_PROPERTY
U
SciTegic.value.DoubleValue
12.140

@<SCITEGIC>MOL_PROPERTY
W
SciTegic.value.DoubleValue
-2.063

@<SCITEGIC>MOL_PROPERTY
W(PB)
SciTegic.value.DoubleValue
-4.217

@<SCITEGIC>MOL_PROPERTY
W(SA)
SciTegic.value.DoubleValue
2.155

@<SCITEGIC>MOL_PROPERTY
Valence
SciTegic.value.DoubleValue
18.247

@<SCITEGIC>MOL_PROPERTY
Coulomb
SciTegic.value.DoubleValue
-8.720

@<SCITEGIC>MOL_PROPERTY
VdW
SciTegic.value.DoubleValue
2.612

@<SCITEGIC>MOL_PROPERTY
VdW6
SciTegic.value.DoubleValue
-11.959

@<SCITEGIC>MOL_PROPERTY
VdW12
SciTegic.value.DoubleValue
14.570

@<SCITEGIC>MOL_PROPERTY
Bond
SciTegic.value.DoubleValue
0.338

@<SCITEGIC>MOL_PROPERTY
Angle
SciTegic.value.DoubleValue
3.151

@<SCITEGIC>MOL_PROPERTY
Pdih
SciTegic.value.DoubleValue
14.759

@<SCITEGIC>MOL_PROPERTY
Idih
SciTegic.value.DoubleValue
0.000

@<SCITEGIC>MOL_PROPERTY
Tether
SciTegic.value.DoubleValue
0.000

@<TRIPOS>MOLECULE
guest-s17_vm2.mol2 : vm2 ligand conformer 31
          25          25           1
SMALL
USER_CHARGES
 
@<TRIPOS>ATOM
       1    C1      21.053533   19.512017   21.002387 C.3        1 MOL1        -0.1684
       2    H1      21.846579   19.928490   21.637249 H          1 MOL1         0.0833
       3    H2      21.360830   19.738064   19.971997 H          1 MOL1         0.0833
       4    C2      21.003912   17.971222   21.139202 C.3        1 MOL1        -0.1684
       5    H3      20.076307   17.583793   20.696375 H          1 MOL1         0.0833
       6    H4      21.817515   17.550242   20.532683 H          1 MOL1         0.0833
       7    C3      21.170005   17.426894   22.578069 C.3        1 MOL1        -0.1684
       8    H5      22.165696   17.682395   22.965656 H          1 MOL1         0.0833
       9    H6      21.146624   16.329995   22.521799 H          1 MOL1         0.0833
      10    C4      20.079869   17.880288   23.578150 C.3        1 MOL1        -0.1760
      11    H7      19.096584   17.859879   23.092252 H          1 MOL1         0.0833
      12    H8      20.025535   17.124508   24.373478 H          1 MOL1         0.0833
      13    C5      20.357988   19.262976   24.225331 C.3        1 MOL1         0.1219
      14    H9      21.361647   19.608042   23.940259 H          1 MOL1         0.0790
      15    C6      19.331146   20.349537   23.831873 C.3        1 MOL1        -0.1760
      16    H10     18.326213   19.911474   23.775650 H          1 MOL1         0.0833
      17    H11     19.281844   21.099151   24.632754 H          1 MOL1         0.0833
      18    C7      19.650799   21.103257   22.517714 C.3        1 MOL1        -0.1684
      19    H12     20.592001   21.659957   22.622656 H          1 MOL1         0.0833
      20    H13     18.871514   21.864685   22.376313 H          1 MOL1         0.0833
      21    C8      19.695062   20.222430   21.246525 C.3        1 MOL1        -0.1684
      22    H14     19.508585   20.880025   20.386261 H          1 MOL1         0.0833
      23    H15     18.862390   19.506593   21.248854 H          1 MOL1         0.0833
      24    O1      20.321686   19.114378   25.640749 O.3        1 MOL1        -0.5508
      25    H16     20.571438   19.981659   26.022556 H          1 MOL1         0.3780
@<TRIPOS>BOND
    1     1     2    1
    2     1     3    1
    3     1     4    1
    4     4     5    1
    5     4     6    1
    6     4     7    1
    7     7     8    1
    8     7     9    1
    9     7    10    1
   10    10    11    1
   11    10    12    1
   12    10    13    1
   13    13    14    1
   14    13    15    1
   15    15    16    1
   16    15    17    1
   17    15    18    1
   18    18    19    1
   19    18    20    1
   20     1    21    1
   21    18    21    1
   22    21    22    1
   23    21    23    1
   24    13    24    1
   25    24    25    1
@<TRIPOS>SUBSTRUCTURE
       1 MOL1            1 RESIDUE      1      MOL     
@<SCITEGIC>MOL_PROPERTY
VM2 Rank
SciTegic.value.IntegerValue
31

@<SCITEGIC>MOL_PROPERTY
Conf_Id
SciTegic.value.IntegerValue
1171

@<SCITEGIC>MOL_PROPERTY
Probability
SciTegic.value.DoubleValue
1.22

@<SCITEGIC>MOL_PROPERTY
Sum Probability
SciTegic.value.DoubleValue
81.13

@<SCITEGIC>MOL_PROPERTY
Delta G
SciTegic.value.DoubleValue
0.803

@<SCITEGIC>MOL_PROPERTY
G
SciTegic.value.DoubleValue
62.878

@<SCITEGIC>MOL_PROPERTY
E
SciTegic.value.DoubleValue
30.759

@<SCITEGIC>MOL_PROPERTY
-TS
SciTegic.value.DoubleValue
32.119

@<SCITEGIC>MOL_PROPERTY
U+W
SciTegic.value.DoubleValue
10.192

@<SCITEGIC>MOL_PROPERTY
U
SciTegic.value.DoubleValue
12.424

@<SCITEGIC>MOL_PROPERTY
W
SciTegic.value.DoubleValue
-2.232

@<SCITEGIC>MOL_PROPERTY
W(PB)
SciTegic.value.DoubleValue
-4.375

@<SCITEGIC>MOL_PROPERTY
W(SA)
SciTegic.value.DoubleValue
2.143

@<SCITEGIC>MOL_PROPERTY
Valence
SciTegic.value.DoubleValue
18.277

@<SCITEGIC>MOL_PROPERTY
Coulomb
SciTegic.value.DoubleValue
-8.429

@<SCITEGIC>MOL_PROPERTY
VdW
SciTegic.value.DoubleValue
2.575

@<SCITEGIC>MOL_PROPERTY
VdW6
SciTegic.value.DoubleValue
-11.900

@<SCITEGIC>MOL_PROPERTY
VdW12
SciTegic.value.DoubleValue
14.476

@<SCITEGIC>MOL_PROPERTY
Bond
SciTegic.value.DoubleValue
0.331

@<SCITEGIC>MOL_PROPERTY
Angle
SciTegic.value.DoubleValue
3.180

@<SCITEGIC>MOL_PROPERTY
Pdih
SciTegic.value.DoubleValue
14.767

@<SCITEGIC>MOL_PROPERTY
Idih
SciTegic.value.DoubleValue
0.000

@<SCITEGIC>MOL_PROPERTY
Tether
SciTegic.value.DoubleValue
0.000

@<TRIPOS>MOLECULE
guest-s17_vm2.mol2 : vm2 ligand conformer 32
          25          25           1
SMALL
USER_CHARGES
 
@<TRIPOS>ATOM
       1    C1      21.070938   19.514216   21.009931 C.3        1 MOL1        -0.1684
       2    H1      21.458751   19.567223   19.983274 H          1 MOL1         0.0833
       3    H2      21.923380   19.769124   21.653197 H          1 MOL1         0.0833
       4    C2      20.591443   18.057252   21.248814 C.3        1 MOL1        -0.1684
       5    H3      19.495532   17.988832   21.240530 H          1 MOL1         0.0833
       6    H4      20.925106   17.456508   20.391471 H          1 MOL1         0.0833
       7    C3      21.162155   17.394962   22.525290 C.3        1 MOL1        -0.1684
       8    H5      22.223698   17.653069   22.640611 H          1 MOL1         0.0833
       9    H6      21.136801   16.305830   22.383163 H          1 MOL1         0.0833
      10    C4      20.394530   17.711116   23.832229 C.3        1 MOL1        -0.1760
      11    H7      19.369673   17.323528   23.765934 H          1 MOL1         0.0833
      12    H8      20.874624   17.139495   24.637537 H          1 MOL1         0.0833
      13    C5      20.367813   19.205767   24.226108 C.3        1 MOL1         0.1219
      14    H9      21.330174   19.659214   23.950580 H          1 MOL1         0.0790
      15    C6      19.209982   20.002239   23.568015 C.3        1 MOL1        -0.1760
      16    H10     18.496240   19.330838   23.074908 H          1 MOL1         0.0833
      17    H11     18.635946   20.505287   24.358033 H          1 MOL1         0.0833
      18    C7      19.683976   21.088184   22.572936 C.3        1 MOL1        -0.1684
      19    H12     20.571610   21.599912   22.969349 H          1 MOL1         0.0833
      20    H13     18.902291   21.857493   22.509427 H          1 MOL1         0.0833
      21    C8      19.958812   20.583044   21.136442 C.3        1 MOL1        -0.1684
      22    H14     20.253568   21.452618   20.533120 H          1 MOL1         0.0833
      23    H15     19.028407   20.213339   20.684431 H          1 MOL1         0.0833
      24    O1      20.224351   19.286220   25.640235 O.3        1 MOL1        -0.5508
      25    H16     21.004650   18.839040   26.029455 H          1 MOL1         0.3780
@<TRIPOS>BOND
    1     1     2    1
    2     1     3    1
    3     1     4    1
    4     4     5    1
    5     4     6    1
    6     4     7    1
    7     7     8    1
    8     7     9    1
    9     7    10    1
   10    10    11    1
   11    10    12    1
   12    10    13    1
   13    13    14    1
   14    13    15    1
   15    15    16    1
   16    15    17    1
   17    15    18    1
   18    18    19    1
   19    18    20    1
   20     1    21    1
   21    18    21    1
   22    21    22    1
   23    21    23    1
   24    13    24    1
   25    24    25    1
@<TRIPOS>SUBSTRUCTURE
       1 MOL1            1 RESIDUE      1      MOL     
@<SCITEGIC>MOL_PROPERTY
VM2 Rank
SciTegic.value.IntegerValue
32

@<SCITEGIC>MOL_PROPERTY
Conf_Id
SciTegic.value.IntegerValue
287

@<SCITEGIC>MOL_PROPERTY
Probability
SciTegic.value.DoubleValue
1.21

@<SCITEGIC>MOL_PROPERTY
Sum Probability
SciTegic.value.DoubleValue
82.33

@<SCITEGIC>MOL_PROPERTY
Delta G
SciTegic.value.DoubleValue
0.810

@<SCITEGIC>MOL_PROPERTY
G
SciTegic.value.DoubleValue
62.885

@<SCITEGIC>MOL_PROPERTY
E
SciTegic.value.DoubleValue
30.766

@<SCITEGIC>MOL_PROPERTY
-TS
SciTegic.value.DoubleValue
32.119

@<SCITEGIC>MOL_PROPERTY
U+W
SciTegic.value.DoubleValue
10.199

@<SCITEGIC>MOL_PROPERTY
U
SciTegic.value.DoubleValue
12.424

@<SCITEGIC>MOL_PROPERTY
W
SciTegic.value.DoubleValue
-2.225

@<SCITEGIC>MOL_PROPERTY
W(PB)
SciTegic.value.DoubleValue
-4.391

@<SCITEGIC>MOL_PROPERTY
W(SA)
SciTegic.value.DoubleValue
2.165

@<SCITEGIC>MOL_PROPERTY
Valence
SciTegic.value.DoubleValue
18.277

@<SCITEGIC>MOL_PROPERTY
Coulomb
SciTegic.value.DoubleValue
-8.429

@<SCITEGIC>MOL_PROPERTY
VdW
SciTegic.value.DoubleValue
2.575

@<SCITEGIC>MOL_PROPERTY
VdW6
SciTegic.value.DoubleValue
-11.900

@<SCITEGIC>MOL_PROPERTY
VdW12
SciTegic.value.DoubleValue
14.476

@<SCITEGIC>MOL_PROPERTY
Bond
SciTegic.value.DoubleValue
0.331

@<SCITEGIC>MOL_PROPERTY
Angle
SciTegic.value.DoubleValue
3.180

@<SCITEGIC>MOL_PROPERTY
Pdih
SciTegic.value.DoubleValue
14.767

@<SCITEGIC>MOL_PROPERTY
Idih
SciTegic.value.DoubleValue
0.000

@<SCITEGIC>MOL_PROPERTY
Tether
SciTegic.value.DoubleValue
0.000

@<TRIPOS>MOLECULE
guest-s17_vm2.mol2 : vm2 ligand conformer 33
          25          25           1
SMALL
USER_CHARGES
 
@<TRIPOS>ATOM
       1    C1      19.706588   18.990027   20.935781 C.3        1 MOL1        -0.1684
       2    H1      18.876460   18.675991   21.578738 H          1 MOL1         0.0833
       3    H2      19.331129   18.852679   19.912645 H          1 MOL1         0.0833
       4    C2      20.916676   18.039305   21.113358 C.3        1 MOL1        -0.1684
       5    H3      20.584684   17.029485   20.835999 H          1 MOL1         0.0833
       6    H4      21.696870   18.305192   20.387353 H          1 MOL1         0.0833
       7    C3      21.550230   17.958054   22.525779 C.3        1 MOL1        -0.1684
       8    H5      22.260461   18.778818   22.676992 H          1 MOL1         0.0833
       9    H6      22.169454   17.050939   22.551303 H          1 MOL1         0.0833
      10    C4      20.540463   17.888390   23.702677 C.3        1 MOL1        -0.1760
      11    H7      19.574736   17.486479   23.373088 H          1 MOL1         0.0833
      12    H8      20.926936   17.155318   24.423131 H          1 MOL1         0.0833
      13    C5      20.341104   19.216962   24.474082 C.3        1 MOL1         0.1219
      14    H9      21.330446   19.584866   24.782029 H          1 MOL1         0.0790
      15    C6      19.615794   20.354274   23.711302 C.3        1 MOL1        -0.1760
      16    H10     18.624211   20.022851   23.379379 H          1 MOL1         0.0833
      17    H11     19.425120   21.160911   24.431250 H          1 MOL1         0.0833
      18    C7      20.421102   20.970038   22.535878 C.3        1 MOL1        -0.1684
      19    H12     21.495938   20.815037   22.683174 H          1 MOL1         0.0833
      20    H13     20.294294   22.060891   22.567238 H          1 MOL1         0.0833
      21    C8      19.992376   20.501085   21.122020 C.3        1 MOL1        -0.1684
      22    H14     20.752337   20.818872   20.395409 H          1 MOL1         0.0833
      23    H15     19.076946   21.044720   20.851208 H          1 MOL1         0.0833
      24    O1      19.579668   18.924864   25.639123 O.3        1 MOL1        -0.5508
      25    H16     19.517913   19.756890   26.153000 H          1 MOL1         0.3780
@<TRIPOS>BOND
    1     1     2    1
    2     1     3    1
    3     1     4    1
    4     4     5    1
    5     4     6    1
    6     4     7    1
    7     7     8    1
    8     7     9    1
    9     7    10    1
   10    10    11    1
   11    10    12    1
   12    10    13    1
   13    13    14    1
   14    13    15    1
   15    15    16    1
   16    15    17    1
   17    15    18    1
   18    18    19    1
   19    18    20    1
   20     1    21    1
   21    18    21    1
   22    21    22    1
   23    21    23    1
   24    13    24    1
   25    24    25    1
@<TRIPOS>SUBSTRUCTURE
       1 MOL1            1 RESIDUE      1      MOL     
@<SCITEGIC>MOL_PROPERTY
VM2 Rank
SciTegic.value.IntegerValue
33

@<SCITEGIC>MOL_PROPERTY
Conf_Id
SciTegic.value.IntegerValue
24

@<SCITEGIC>MOL_PROPERTY
Probability
SciTegic.value.DoubleValue
1.18

@<SCITEGIC>MOL_PROPERTY
Sum Probability
SciTegic.value.DoubleValue
83.51

@<SCITEGIC>MOL_PROPERTY
Delta G
SciTegic.value.DoubleValue
0.824

@<SCITEGIC>MOL_PROPERTY
G
SciTegic.value.DoubleValue
62.899

@<SCITEGIC>MOL_PROPERTY
E
SciTegic.value.DoubleValue
30.245

@<SCITEGIC>MOL_PROPERTY
-TS
SciTegic.value.DoubleValue
32.654

@<SCITEGIC>MOL_PROPERTY
U+W
SciTegic.value.DoubleValue
9.678

@<SCITEGIC>MOL_PROPERTY
U
SciTegic.value.DoubleValue
11.876

@<SCITEGIC>MOL_PROPERTY
W
SciTegic.value.DoubleValue
-2.199

@<SCITEGIC>MOL_PROPERTY
W(PB)
SciTegic.value.DoubleValue
-4.335

@<SCITEGIC>MOL_PROPERTY
W(SA)
SciTegic.value.DoubleValue
2.137

@<SCITEGIC>MOL_PROPERTY
Valence
SciTegic.value.DoubleValue
17.153

@<SCITEGIC>MOL_PROPERTY
Coulomb
SciTegic.value.DoubleValue
-7.966

@<SCITEGIC>MOL_PROPERTY
VdW
SciTegic.value.DoubleValue
2.689

@<SCITEGIC>MOL_PROPERTY
VdW6
SciTegic.value.DoubleValue
-12.458

@<SCITEGIC>MOL_PROPERTY
VdW12
SciTegic.value.DoubleValue
15.147

@<SCITEGIC>MOL_PROPERTY
Bond
SciTegic.value.DoubleValue
0.421

@<SCITEGIC>MOL_PROPERTY
Angle
SciTegic.value.DoubleValue
5.258

@<SCITEGIC>MOL_PROPERTY
Pdih
SciTegic.value.DoubleValue
11.475

@<SCITEGIC>MOL_PROPERTY
Idih
SciTegic.value.DoubleValue
0.000

@<SCITEGIC>MOL_PROPERTY
Tether
SciTegic.value.DoubleValue
0.000

@<TRIPOS>MOLECULE
guest-s17_vm2.mol2 : vm2 ligand conformer 34
          25          25           1
SMALL
USER_CHARGES
 
@<TRIPOS>ATOM
       1    C1      21.051417   19.511203   20.999349 C.3        1 MOL1        -0.1684
       2    H1      21.846341   19.927857   21.631836 H          1 MOL1         0.0833
       3    H2      21.356068   19.735803   19.967857 H          1 MOL1         0.0833
       4    C2      21.001351   17.970835   21.138473 C.3        1 MOL1        -0.1684
       5    H3      20.072274   17.582846   20.699234 H          1 MOL1         0.0833
       6    H4      21.812978   17.548771   20.530055 H          1 MOL1         0.0833
       7    C3      21.172479   17.429419   22.577675 C.3        1 MOL1        -0.1684
       8    H5      22.167852   17.689752   22.962980 H          1 MOL1         0.0833
       9    H6      21.154052   16.332341   22.522473 H          1 MOL1         0.0833
      10    C4      20.082170   17.878718   23.579253 C.3        1 MOL1        -0.1760
      11    H7      19.098999   17.856538   23.092682 H          1 MOL1         0.0833
      12    H8      20.032848   17.118926   24.371000 H          1 MOL1         0.0833
      13    C5      20.357554   19.261890   24.226955 C.3        1 MOL1         0.1219
      14    H9      21.362434   19.608373   23.948514 H          1 MOL1         0.0790
      15    C6      19.333507   20.350297   23.832265 C.3        1 MOL1        -0.1760
      16    H10     18.326060   19.918160   23.776168 H          1 MOL1         0.0833
      17    H11     19.292843   21.100275   24.633900 H          1 MOL1         0.0833
      18    C7      19.654620   21.103087   22.518083 C.3        1 MOL1        -0.1684
      19    H12     20.598112   21.655951   22.622915 H          1 MOL1         0.0833
      20    H13     18.878348   21.867793   22.377905 H          1 MOL1         0.0833
      21    C8      19.694253   20.222712   21.246564 C.3        1 MOL1        -0.1684
      22    H14     19.506764   20.880970   20.387027 H          1 MOL1         0.0833
      23    H15     18.860730   19.507892   21.250382 H          1 MOL1         0.0833
      24    O1      20.316651   19.114839   25.641382 O.3        1 MOL1        -0.5508
      25    H16     19.407104   18.827329   25.863236 H          1 MOL1         0.3780
@<TRIPOS>BOND
    1     1     2    1
    2     1     3    1
    3     1     4    1
    4     4     5    1
    5     4     6    1
    6     4     7    1
    7     7     8    1
    8     7     9    1
    9     7    10    1
   10    10    11    1
   11    10    12    1
   12    10    13    1
   13    13    14    1
   14    13    15    1
   15    15    16    1
   16    15    17    1
   17    15    18    1
   18    18    19    1
   19    18    20    1
   20     1    21    1
   21    18    21    1
   22    21    22    1
   23    21    23    1
   24    13    24    1
   25    24    25    1
@<TRIPOS>SUBSTRUCTURE
       1 MOL1            1 RESIDUE      1      MOL     
@<SCITEGIC>MOL_PROPERTY
VM2 Rank
SciTegic.value.IntegerValue
34

@<SCITEGIC>MOL_PROPERTY
Conf_Id
SciTegic.value.IntegerValue
582

@<SCITEGIC>MOL_PROPERTY
Probability
SciTegic.value.DoubleValue
1.18

@<SCITEGIC>MOL_PROPERTY
Sum Probability
SciTegic.value.DoubleValue
84.69

@<SCITEGIC>MOL_PROPERTY
Delta G
SciTegic.value.DoubleValue
0.825

@<SCITEGIC>MOL_PROPERTY
G
SciTegic.value.DoubleValue
62.901

@<SCITEGIC>MOL_PROPERTY
E
SciTegic.value.DoubleValue
30.812

@<SCITEGIC>MOL_PROPERTY
-TS
SciTegic.value.DoubleValue
32.089

@<SCITEGIC>MOL_PROPERTY
U+W
SciTegic.value.DoubleValue
10.244

@<SCITEGIC>MOL_PROPERTY
U
SciTegic.value.DoubleValue
12.337

@<SCITEGIC>MOL_PROPERTY
W
SciTegic.value.DoubleValue
-2.092

@<SCITEGIC>MOL_PROPERTY
W(PB)
SciTegic.value.DoubleValue
-4.240

@<SCITEGIC>MOL_PROPERTY
W(SA)
SciTegic.value.DoubleValue
2.147

@<SCITEGIC>MOL_PROPERTY
Valence
SciTegic.value.DoubleValue
18.676

@<SCITEGIC>MOL_PROPERTY
Coulomb
SciTegic.value.DoubleValue
-8.851

@<SCITEGIC>MOL_PROPERTY
VdW
SciTegic.value.DoubleValue
2.512

@<SCITEGIC>MOL_PROPERTY
VdW6
SciTegic.value.DoubleValue
-11.906

@<SCITEGIC>MOL_PROPERTY
VdW12
SciTegic.value.DoubleValue
14.417

@<SCITEGIC>MOL_PROPERTY
Bond
SciTegic.value.DoubleValue
0.323

@<SCITEGIC>MOL_PROPERTY
Angle
SciTegic.value.DoubleValue
3.226

@<SCITEGIC>MOL_PROPERTY
Pdih
SciTegic.value.DoubleValue
15.127

@<SCITEGIC>MOL_PROPERTY
Idih
SciTegic.value.DoubleValue
0.000

@<SCITEGIC>MOL_PROPERTY
Tether
SciTegic.value.DoubleValue
0.000

@<TRIPOS>MOLECULE
guest-s17_vm2.mol2 : vm2 ligand conformer 35
          25          25           1
SMALL
USER_CHARGES
 
@<TRIPOS>ATOM
       1    C1      20.769581   19.249865   20.796723 C.3        1 MOL1        -0.1684
       2    H1      20.727547   19.083986   19.711567 H          1 MOL1         0.0833
       3    H2      21.828373   19.436716   21.016961 H          1 MOL1         0.0833
       4    C2      20.274475   17.952436   21.486261 C.3        1 MOL1        -0.1684
       5    H3      19.206902   18.025687   21.722660 H          1 MOL1         0.0833
       6    H4      20.339672   17.131042   20.759732 H          1 MOL1         0.0833
       7    C3      21.078861   17.520511   22.738576 C.3        1 MOL1        -0.1684
       8    H5      22.011863   17.053800   22.395035 H          1 MOL1         0.0833
       9    H6      20.525409   16.728021   23.260462 H          1 MOL1         0.0833
      10    C4      21.460263   18.631852   23.753288 C.3        1 MOL1        -0.1760
      11    H7      22.094042   18.170893   24.521894 H          1 MOL1         0.0833
      12    H8      22.107230   19.373196   23.272573 H          1 MOL1         0.0833
      13    C5      20.302863   19.348548   24.492177 C.3        1 MOL1         0.1219
      14    H9      20.772743   20.053379   25.193287 H          1 MOL1         0.0790
      15    C6      19.322806   20.169874   23.619690 C.3        1 MOL1        -0.1760
      16    H10     18.566903   19.518820   23.167033 H          1 MOL1         0.0833
      17    H11     18.759766   20.821650   24.300292 H          1 MOL1         0.0833
      18    C7      19.982995   21.069619   22.540524 C.3        1 MOL1        -0.1684
      19    H12     21.017125   21.319313   22.810625 H          1 MOL1         0.0833
      20    H13     19.448057   22.029210   22.537272 H          1 MOL1         0.0833
      21    C8      19.914474   20.508564   21.096403 C.3        1 MOL1        -0.1684
      22    H14     18.866987   20.308080   20.832971 H          1 MOL1         0.0833
      23    H15     20.242032   21.304375   20.413622 H          1 MOL1         0.0833
      24    O1      19.557681   18.391730   25.236358 O.3        1 MOL1        -0.5508
      25    H16     18.866835   18.887814   25.721790 H          1 MOL1         0.3780
@<TRIPOS>BOND
    1     1     2    1
    2     1     3    1
    3     1     4    1
    4     4     5    1
    5     4     6    1
    6     4     7    1
    7     7     8    1
    8     7     9    1
    9     7    10    1
   10    10    11    1
   11    10    12    1
   12    10    13    1
   13    13    14    1
   14    13    15    1
   15    15    16    1
   16    15    17    1
   17    15    18    1
   18    18    19    1
   19    18    20    1
   20     1    21    1
   21    18    21    1
   22    21    22    1
   23    21    23    1
   24    13    24    1
   25    24    25    1
@<TRIPOS>SUBSTRUCTURE
       1 MOL1            1 RESIDUE      1      MOL     
@<SCITEGIC>MOL_PROPERTY
VM2 Rank
SciTegic.value.IntegerValue
35

@<SCITEGIC>MOL_PROPERTY
Conf_Id
SciTegic.value.IntegerValue
246

@<SCITEGIC>MOL_PROPERTY
Probability
SciTegic.value.DoubleValue
0.88

@<SCITEGIC>MOL_PROPERTY
Sum Probability
SciTegic.value.DoubleValue
85.57

@<SCITEGIC>MOL_PROPERTY
Delta G
SciTegic.value.DoubleValue
0.998

@<SCITEGIC>MOL_PROPERTY
G
SciTegic.value.DoubleValue
63.073

@<SCITEGIC>MOL_PROPERTY
E
SciTegic.value.DoubleValue
30.342

@<SCITEGIC>MOL_PROPERTY
-TS
SciTegic.value.DoubleValue
32.731

@<SCITEGIC>MOL_PROPERTY
U+W
SciTegic.value.DoubleValue
9.775

@<SCITEGIC>MOL_PROPERTY
U
SciTegic.value.DoubleValue
11.974

@<SCITEGIC>MOL_PROPERTY
W
SciTegic.value.DoubleValue
-2.199

@<SCITEGIC>MOL_PROPERTY
W(PB)
SciTegic.value.DoubleValue
-4.332

@<SCITEGIC>MOL_PROPERTY
W(SA)
SciTegic.value.DoubleValue
2.133

@<SCITEGIC>MOL_PROPERTY
Valence
SciTegic.value.DoubleValue
16.772

@<SCITEGIC>MOL_PROPERTY
Coulomb
SciTegic.value.DoubleValue
-7.357

@<SCITEGIC>MOL_PROPERTY
VdW
SciTegic.value.DoubleValue
2.559

@<SCITEGIC>MOL_PROPERTY
VdW6
SciTegic.value.DoubleValue
-12.877

@<SCITEGIC>MOL_PROPERTY
VdW12
SciTegic.value.DoubleValue
15.436

@<SCITEGIC>MOL_PROPERTY
Bond
SciTegic.value.DoubleValue
0.436

@<SCITEGIC>MOL_PROPERTY
Angle
SciTegic.value.DoubleValue
5.452

@<SCITEGIC>MOL_PROPERTY
Pdih
SciTegic.value.DoubleValue
10.883

@<SCITEGIC>MOL_PROPERTY
Idih
SciTegic.value.DoubleValue
0.000

@<SCITEGIC>MOL_PROPERTY
Tether
SciTegic.value.DoubleValue
0.000

@<TRIPOS>MOLECULE
guest-s17_vm2.mol2 : vm2 ligand conformer 36
          25          25           1
SMALL
USER_CHARGES
 
@<TRIPOS>ATOM
       1    C1      20.666175   19.502298   20.796531 C.3        1 MOL1        -0.1684
       2    H1      21.541167   20.127074   21.016765 H          1 MOL1         0.0833
       3    H2      20.521617   19.584186   19.710602 H          1 MOL1         0.0833
       4    C2      20.963106   18.011285   21.103210 C.3        1 MOL1        -0.1684
       5    H3      20.086436   17.403957   20.839726 H          1 MOL1         0.0833
       6    H4      21.762155   17.684003   20.424088 H          1 MOL1         0.0833
       7    C3      21.406972   17.672670   22.550030 C.3        1 MOL1        -0.1684
       8    H5      22.309363   18.235971   22.820417 H          1 MOL1         0.0833
       9    H6      21.715997   16.618401   22.552019 H          1 MOL1         0.0833
      10    C4      20.299465   17.837364   23.625343 C.3        1 MOL1        -0.1760
      11    H7      19.306546   17.753144   23.170176 H          1 MOL1         0.0833
      12    H8      20.367345   16.981716   24.309671 H          1 MOL1         0.0833
      13    C5      20.398694   19.115605   24.492853 C.3        1 MOL1         0.1219
      14    H9      21.228770   18.959296   25.196892 H          1 MOL1         0.0790
      15    C6      20.701295   20.440284   23.749323 C.3        1 MOL1        -0.1760
      16    H10     20.814834   21.218556   24.515036 H          1 MOL1         0.0833
      17    H11     21.684864   20.379788   23.271647 H          1 MOL1         0.0833
      18    C7      19.644365   20.943354   22.729513 C.3        1 MOL1        -0.1684
      19    H12     19.966719   21.934435   22.382846 H          1 MOL1         0.0833
      20    H13     18.689755   21.106478   23.247997 H          1 MOL1         0.0833
      21    C8      19.391966   20.061860   21.480048 C.3        1 MOL1        -0.1684
      22    H14     18.694930   19.250311   21.717728 H          1 MOL1         0.0833
      23    H15     18.854180   20.681305   20.749392 H          1 MOL1         0.0833
      24    O1      19.191961   19.258280   25.233150 O.3        1 MOL1        -0.5508
      25    H16     19.060033   18.419973   25.721874 H          1 MOL1         0.3780
@<TRIPOS>BOND
    1     1     2    1
    2     1     3    1
    3     1     4    1
    4     4     5    1
    5     4     6    1
    6     4     7    1
    7     7     8    1
    8     7     9    1
    9     7    10    1
   10    10    11    1
   11    10    12    1
   12    10    13    1
   13    13    14    1
   14    13    15    1
   15    15    16    1
   16    15    17    1
   17    15    18    1
   18    18    19    1
   19    18    20    1
   20     1    21    1
   21    18    21    1
   22    21    22    1
   23    21    23    1
   24    13    24    1
   25    24    25    1
@<TRIPOS>SUBSTRUCTURE
       1 MOL1            1 RESIDUE      1      MOL     
@<SCITEGIC>MOL_PROPERTY
VM2 Rank
SciTegic.value.IntegerValue
36

@<SCITEGIC>MOL_PROPERTY
Conf_Id
SciTegic.value.IntegerValue
1548

@<SCITEGIC>MOL_PROPERTY
Probability
SciTegic.value.DoubleValue
0.85

@<SCITEGIC>MOL_PROPERTY
Sum Probability
SciTegic.value.DoubleValue
86.41

@<SCITEGIC>MOL_PROPERTY
Delta G
SciTegic.value.DoubleValue
1.022

@<SCITEGIC>MOL_PROPERTY
G
SciTegic.value.DoubleValue
63.097

@<SCITEGIC>MOL_PROPERTY
E
SciTegic.value.DoubleValue
30.367

@<SCITEGIC>MOL_PROPERTY
-TS
SciTegic.value.DoubleValue
32.730

@<SCITEGIC>MOL_PROPERTY
U+W
SciTegic.value.DoubleValue
9.799

@<SCITEGIC>MOL_PROPERTY
U
SciTegic.value.DoubleValue
11.974

@<SCITEGIC>MOL_PROPERTY
W
SciTegic.value.DoubleValue
-2.174

@<SCITEGIC>MOL_PROPERTY
W(PB)
SciTegic.value.DoubleValue
-4.302

@<SCITEGIC>MOL_PROPERTY
W(SA)
SciTegic.value.DoubleValue
2.128

@<SCITEGIC>MOL_PROPERTY
Valence
SciTegic.value.DoubleValue
16.772

@<SCITEGIC>MOL_PROPERTY
Coulomb
SciTegic.value.DoubleValue
-7.357

@<SCITEGIC>MOL_PROPERTY
VdW
SciTegic.value.DoubleValue
2.559

@<SCITEGIC>MOL_PROPERTY
VdW6
SciTegic.value.DoubleValue
-12.877

@<SCITEGIC>MOL_PROPERTY
VdW12
SciTegic.value.DoubleValue
15.436

@<SCITEGIC>MOL_PROPERTY
Bond
SciTegic.value.DoubleValue
0.436

@<SCITEGIC>MOL_PROPERTY
Angle
SciTegic.value.DoubleValue
5.452

@<SCITEGIC>MOL_PROPERTY
Pdih
SciTegic.value.DoubleValue
10.883

@<SCITEGIC>MOL_PROPERTY
Idih
SciTegic.value.DoubleValue
0.000

@<SCITEGIC>MOL_PROPERTY
Tether
SciTegic.value.DoubleValue
0.000

@<TRIPOS>MOLECULE
guest-s17_vm2.mol2 : vm2 ligand conformer 37
          25          25           1
SMALL
USER_CHARGES
 
@<TRIPOS>ATOM
       1    C1      20.689424   19.360496   20.551783 C.3        1 MOL1        -0.1684
       2    H1      20.407523   19.228568   19.498164 H          1 MOL1         0.0833
       3    H2      21.757312   19.617333   20.540573 H          1 MOL1         0.0833
       4    C2      20.471470   18.010306   21.274295 C.3        1 MOL1        -0.1684
       5    H3      19.407852   17.867490   21.506995 H          1 MOL1         0.0833
       6    H4      20.721646   17.213900   20.559905 H          1 MOL1         0.0833
       7    C3      21.360439   17.803752   22.528515 C.3        1 MOL1        -0.1684
       8    H5      22.186576   18.526716   22.557665 H          1 MOL1         0.0833
       9    H6      21.839059   16.819363   22.432946 H          1 MOL1         0.0833
      10    C4      20.588688   17.812071   23.870527 C.3        1 MOL1        -0.1760
      11    H7      19.635907   17.277331   23.761680 H          1 MOL1         0.0833
      12    H8      21.176206   17.231242   24.593626 H          1 MOL1         0.0833
      13    C5      20.342311   19.207922   24.484796 C.3        1 MOL1         0.1219
      14    H9      21.310394   19.704061   24.643956 H          1 MOL1         0.0790
      15    C6      19.438844   20.133716   23.639452 C.3        1 MOL1        -0.1760
      16    H10     18.616760   19.555528   23.199355 H          1 MOL1         0.0833
      17    H11     18.960134   20.850700   24.320134 H          1 MOL1         0.0833
      18    C7      20.193046   20.954454   22.558942 C.3        1 MOL1        -0.1684
      19    H12     21.278506   20.934538   22.724343 H          1 MOL1         0.0833
      20    H13     19.899317   22.006333   22.679092 H          1 MOL1         0.0833
      21    C8      19.863981   20.545706   21.104456 C.3        1 MOL1        -0.1684
      22    H14     20.059231   21.411850   20.457408 H          1 MOL1         0.0833
      23    H15     18.790261   20.337562   21.002492 H          1 MOL1         0.0833
      24    O1      19.715797   19.014577   25.747234 O.3        1 MOL1        -0.5508
      25    H16     20.327292   18.471024   26.286639 H          1 MOL1         0.3780
@<TRIPOS>BOND
    1     1     2    1
    2     1     3    1
    3     1     4    1
    4     4     5    1
    5     4     6    1
    6     4     7    1
    7     7     8    1
    8     7     9    1
    9     7    10    1
   10    10    11    1
   11    10    12    1
   12    10    13    1
   13    13    14    1
   14    13    15    1
   15    15    16    1
   16    15    17    1
   17    15    18    1
   18    18    19    1
   19    18    20    1
   20     1    21    1
   21    18    21    1
   22    21    22    1
   23    21    23    1
   24    13    24    1
   25    24    25    1
@<TRIPOS>SUBSTRUCTURE
       1 MOL1            1 RESIDUE      1      MOL     
@<SCITEGIC>MOL_PROPERTY
VM2 Rank
SciTegic.value.IntegerValue
37

@<SCITEGIC>MOL_PROPERTY
Conf_Id
SciTegic.value.IntegerValue
1654

@<SCITEGIC>MOL_PROPERTY
Probability
SciTegic.value.DoubleValue
0.76

@<SCITEGIC>MOL_PROPERTY
Sum Probability
SciTegic.value.DoubleValue
87.18

@<SCITEGIC>MOL_PROPERTY
Delta G
SciTegic.value.DoubleValue
1.084

@<SCITEGIC>MOL_PROPERTY
G
SciTegic.value.DoubleValue
63.159

@<SCITEGIC>MOL_PROPERTY
E
SciTegic.value.DoubleValue
31.416

@<SCITEGIC>MOL_PROPERTY
-TS
SciTegic.value.DoubleValue
31.743

@<SCITEGIC>MOL_PROPERTY
U+W
SciTegic.value.DoubleValue
10.849

@<SCITEGIC>MOL_PROPERTY
U
SciTegic.value.DoubleValue
13.140

@<SCITEGIC>MOL_PROPERTY
W
SciTegic.value.DoubleValue
-2.291

@<SCITEGIC>MOL_PROPERTY
W(PB)
SciTegic.value.DoubleValue
-4.429

@<SCITEGIC>MOL_PROPERTY
W(SA)
SciTegic.value.DoubleValue
2.137

@<SCITEGIC>MOL_PROPERTY
Valence
SciTegic.value.DoubleValue
19.156

@<SCITEGIC>MOL_PROPERTY
Coulomb
SciTegic.value.DoubleValue
-8.157

@<SCITEGIC>MOL_PROPERTY
VdW
SciTegic.value.DoubleValue
2.141

@<SCITEGIC>MOL_PROPERTY
VdW6
SciTegic.value.DoubleValue
-11.576

@<SCITEGIC>MOL_PROPERTY
VdW12
SciTegic.value.DoubleValue
13.717

@<SCITEGIC>MOL_PROPERTY
Bond
SciTegic.value.DoubleValue
0.294

@<SCITEGIC>MOL_PROPERTY
Angle
SciTegic.value.DoubleValue
3.548

@<SCITEGIC>MOL_PROPERTY
Pdih
SciTegic.value.DoubleValue
15.314

@<SCITEGIC>MOL_PROPERTY
Idih
SciTegic.value.DoubleValue
0.000

@<SCITEGIC>MOL_PROPERTY
Tether
SciTegic.value.DoubleValue
0.000

@<TRIPOS>MOLECULE
guest-s17_vm2.mol2 : vm2 ligand conformer 38
          25          25           1
SMALL
USER_CHARGES
 
@<TRIPOS>ATOM
       1    C1      20.694930   19.362634   20.554957 C.3        1 MOL1        -0.1684
       2    H1      21.762464   19.621125   20.550790 H          1 MOL1         0.0833
       3    H2      20.419798   19.232713   19.499297 H          1 MOL1         0.0833
       4    C2      20.474504   18.010028   21.272429 C.3        1 MOL1        -0.1684
       5    H3      19.410128   17.865579   21.500594 H          1 MOL1         0.0833
       6    H4      20.727895   17.216291   20.556204 H          1 MOL1         0.0833
       7    C3      21.358632   17.798616   22.529249 C.3        1 MOL1        -0.1684
       8    H5      22.189177   18.516403   22.560320 H          1 MOL1         0.0833
       9    H6      21.831121   16.811087   22.435966 H          1 MOL1         0.0833
      10    C4      20.583591   17.812309   23.869443 C.3        1 MOL1        -0.1760
      11    H7      19.629469   17.280152   23.761819 H          1 MOL1         0.0833
      12    H8      21.166092   17.233936   24.598781 H          1 MOL1         0.0833
      13    C5      20.341695   19.208926   24.482224 C.3        1 MOL1         0.1219
      14    H9      21.312786   19.701082   24.635291 H          1 MOL1         0.0790
      15    C6      19.434251   20.132691   23.638269 C.3        1 MOL1        -0.1760
      16    H10     18.617626   19.549789   23.193752 H          1 MOL1         0.0833
      17    H11     18.946970   20.848857   24.313199 H          1 MOL1         0.0833
      18    C7      20.187977   20.956096   22.559732 C.3        1 MOL1        -0.1684
      19    H12     21.273250   20.939948   22.727122 H          1 MOL1         0.0833
      20    H13     19.890406   22.007098   22.678413 H          1 MOL1         0.0833
      21    C8      19.864155   20.545531   21.104644 C.3        1 MOL1        -0.1684
      22    H14     20.058984   21.411950   20.457825 H          1 MOL1         0.0833
      23    H15     18.791351   20.334354   20.999284 H          1 MOL1         0.0833
      24    O1      19.724266   19.016170   25.749054 O.3        1 MOL1        -0.5508
      25    H16     19.641743   19.901674   26.160758 H          1 MOL1         0.3780
@<TRIPOS>BOND
    1     1     2    1
    2     1     3    1
    3     1     4    1
    4     4     5    1
    5     4     6    1
    6     4     7    1
    7     7     8    1
    8     7     9    1
    9     7    10    1
   10    10    11    1
   11    10    12    1
   12    10    13    1
   13    13    14    1
   14    13    15    1
   15    15    16    1
   16    15    17    1
   17    15    18    1
   18    18    19    1
   19    18    20    1
   20     1    21    1
   21    18    21    1
   22    21    22    1
   23    21    23    1
   24    13    24    1
   25    24    25    1
@<TRIPOS>SUBSTRUCTURE
       1 MOL1            1 RESIDUE      1      MOL     
@<SCITEGIC>MOL_PROPERTY
VM2 Rank
SciTegic.value.IntegerValue
38

@<SCITEGIC>MOL_PROPERTY
Conf_Id
SciTegic.value.IntegerValue
715

@<SCITEGIC>MOL_PROPERTY
Probability
SciTegic.value.DoubleValue
0.76

@<SCITEGIC>MOL_PROPERTY
Sum Probability
SciTegic.value.DoubleValue
87.94

@<SCITEGIC>MOL_PROPERTY
Delta G
SciTegic.value.DoubleValue
1.086

@<SCITEGIC>MOL_PROPERTY
G
SciTegic.value.DoubleValue
63.161

@<SCITEGIC>MOL_PROPERTY
E
SciTegic.value.DoubleValue
31.434

@<SCITEGIC>MOL_PROPERTY
-TS
SciTegic.value.DoubleValue
31.728

@<SCITEGIC>MOL_PROPERTY
U+W
SciTegic.value.DoubleValue
10.866

@<SCITEGIC>MOL_PROPERTY
U
SciTegic.value.DoubleValue
13.061

@<SCITEGIC>MOL_PROPERTY
W
SciTegic.value.DoubleValue
-2.195

@<SCITEGIC>MOL_PROPERTY
W(PB)
SciTegic.value.DoubleValue
-4.334

@<SCITEGIC>MOL_PROPERTY
W(SA)
SciTegic.value.DoubleValue
2.139

@<SCITEGIC>MOL_PROPERTY
Valence
SciTegic.value.DoubleValue
19.173

@<SCITEGIC>MOL_PROPERTY
Coulomb
SciTegic.value.DoubleValue
-8.232

@<SCITEGIC>MOL_PROPERTY
VdW
SciTegic.value.DoubleValue
2.120

@<SCITEGIC>MOL_PROPERTY
VdW6
SciTegic.value.DoubleValue
-11.562

@<SCITEGIC>MOL_PROPERTY
VdW12
SciTegic.value.DoubleValue
13.682

@<SCITEGIC>MOL_PROPERTY
Bond
SciTegic.value.DoubleValue
0.293

@<SCITEGIC>MOL_PROPERTY
Angle
SciTegic.value.DoubleValue
3.543

@<SCITEGIC>MOL_PROPERTY
Pdih
SciTegic.value.DoubleValue
15.337

@<SCITEGIC>MOL_PROPERTY
Idih
SciTegic.value.DoubleValue
0.000

@<SCITEGIC>MOL_PROPERTY
Tether
SciTegic.value.DoubleValue
0.000

@<TRIPOS>MOLECULE
guest-s17_vm2.mol2 : vm2 ligand conformer 39
          25          25           1
SMALL
USER_CHARGES
 
@<TRIPOS>ATOM
       1    C1      20.694537   19.362187   20.554704 C.3        1 MOL1        -0.1684
       2    H1      20.418714   19.232096   19.499242 H          1 MOL1         0.0833
       3    H2      21.761894   19.621425   20.549804 H          1 MOL1         0.0833
       4    C2      20.475422   18.009648   21.272362 C.3        1 MOL1        -0.1684
       5    H3      19.411034   17.864238   21.499743 H          1 MOL1         0.0833
       6    H4      20.730130   17.215983   20.556507 H          1 MOL1         0.0833
       7    C3      21.359453   17.800115   22.529493 C.3        1 MOL1        -0.1684
       8    H5      22.187799   18.520455   22.561645 H          1 MOL1         0.0833
       9    H6      21.835168   16.814143   22.435813 H          1 MOL1         0.0833
      10    C4      20.583081   17.810815   23.868552 C.3        1 MOL1        -0.1760
      11    H7      19.631788   17.274769   23.756001 H          1 MOL1         0.0833
      12    H8      21.167602   17.232889   24.596936 H          1 MOL1         0.0833
      13    C5      20.340499   19.207515   24.481489 C.3        1 MOL1         0.1219
      14    H9      21.310628   19.700215   24.637610 H          1 MOL1         0.0790
      15    C6      19.435044   20.135561   23.640517 C.3        1 MOL1        -0.1760
      16    H10     18.611265   19.561209   23.198256 H          1 MOL1         0.0833
      17    H11     18.960635   20.854773   24.322099 H          1 MOL1         0.0833
      18    C7      20.188570   20.956106   22.559667 C.3        1 MOL1        -0.1684
      19    H12     21.273843   20.939936   22.727043 H          1 MOL1         0.0833
      20    H13     19.891585   22.007406   22.677128 H          1 MOL1         0.0833
      21    C8      19.863315   20.544284   21.105181 C.3        1 MOL1        -0.1684
      22    H14     20.056600   21.410617   20.457777 H          1 MOL1         0.0833
      23    H15     18.790589   20.332211   21.000991 H          1 MOL1         0.0833
      24    O1      19.724078   19.016768   25.748036 O.3        1 MOL1        -0.5508
      25    H16     18.862247   18.585552   25.574007 H          1 MOL1         0.3780
@<TRIPOS>BOND
    1     1     2    1
    2     1     3    1
    3     1     4    1
    4     4     5    1
    5     4     6    1
    6     4     7    1
    7     7     8    1
    8     7     9    1
    9     7    10    1
   10    10    11    1
   11    10    12    1
   12    10    13    1
   13    13    14    1
   14    13    15    1
   15    15    16    1
   16    15    17    1
   17    15    18    1
   18    18    19    1
   19    18    20    1
   20     1    21    1
   21    18    21    1
   22    21    22    1
   23    21    23    1
   24    13    24    1
   25    24    25    1
@<TRIPOS>SUBSTRUCTURE
       1 MOL1            1 RESIDUE      1      MOL     
@<SCITEGIC>MOL_PROPERTY
VM2 Rank
SciTegic.value.IntegerValue
39

@<SCITEGIC>MOL_PROPERTY
Conf_Id
SciTegic.value.IntegerValue
1541

@<SCITEGIC>MOL_PROPERTY
Probability
SciTegic.value.DoubleValue
0.69

@<SCITEGIC>MOL_PROPERTY
Sum Probability
SciTegic.value.DoubleValue
88.62

@<SCITEGIC>MOL_PROPERTY
Delta G
SciTegic.value.DoubleValue
1.147

@<SCITEGIC>MOL_PROPERTY
G
SciTegic.value.DoubleValue
63.222

@<SCITEGIC>MOL_PROPERTY
E
SciTegic.value.DoubleValue
31.524

@<SCITEGIC>MOL_PROPERTY
-TS
SciTegic.value.DoubleValue
31.698

@<SCITEGIC>MOL_PROPERTY
U+W
SciTegic.value.DoubleValue
10.956

@<SCITEGIC>MOL_PROPERTY
U
SciTegic.value.DoubleValue
12.791

@<SCITEGIC>MOL_PROPERTY
W
SciTegic.value.DoubleValue
-1.835

@<SCITEGIC>MOL_PROPERTY
W(PB)
SciTegic.value.DoubleValue
-3.980

@<SCITEGIC>MOL_PROPERTY
W(SA)
SciTegic.value.DoubleValue
2.145

@<SCITEGIC>MOL_PROPERTY
Valence
SciTegic.value.DoubleValue
19.528

@<SCITEGIC>MOL_PROPERTY
Coulomb
SciTegic.value.DoubleValue
-8.823

@<SCITEGIC>MOL_PROPERTY
VdW
SciTegic.value.DoubleValue
2.086

@<SCITEGIC>MOL_PROPERTY
VdW6
SciTegic.value.DoubleValue
-11.580

@<SCITEGIC>MOL_PROPERTY
VdW12
SciTegic.value.DoubleValue
13.666

@<SCITEGIC>MOL_PROPERTY
Bond
SciTegic.value.DoubleValue
0.287

@<SCITEGIC>MOL_PROPERTY
Angle
SciTegic.value.DoubleValue
3.589

@<SCITEGIC>MOL_PROPERTY
Pdih
SciTegic.value.DoubleValue
15.653

@<SCITEGIC>MOL_PROPERTY
Idih
SciTegic.value.DoubleValue
0.000

@<SCITEGIC>MOL_PROPERTY
Tether
SciTegic.value.DoubleValue
0.000

@<TRIPOS>MOLECULE
guest-s17_vm2.mol2 : vm2 ligand conformer 40
          25          25           1
SMALL
USER_CHARGES
 
@<TRIPOS>ATOM
       1    C1      19.892758   19.017948   21.011269 C.3        1 MOL1        -0.1684
       2    H1      18.996640   18.566157   21.454587 H          1 MOL1         0.0833
       3    H2      19.772509   18.883435   19.927303 H          1 MOL1         0.0833
       4    C2      21.181884   18.262786   21.420324 C.3        1 MOL1        -0.1684
       5    H3      21.434949   17.582632   20.595213 H          1 MOL1         0.0833
       6    H4      22.036975   18.946968   21.503314 H          1 MOL1         0.0833
       7    C3      21.053714   17.398996   22.694913 C.3        1 MOL1        -0.1684
       8    H5      21.795092   16.591795   22.618536 H          1 MOL1         0.0833
       9    H6      20.080620   16.890897   22.724184 H          1 MOL1         0.0833
      10    C4      21.332856   18.139903   24.027617 C.3        1 MOL1        -0.1760
      11    H7      21.387439   17.379964   24.818132 H          1 MOL1         0.0833
      12    H8      22.332216   18.592631   23.994298 H          1 MOL1         0.0833
      13    C5      20.301507   19.196654   24.488315 C.3        1 MOL1         0.1219
      14    H9      20.483189   19.339068   25.563481 H          1 MOL1         0.0790
      15    C6      20.472356   20.597132   23.837974 C.3        1 MOL1        -0.1760
      16    H10     20.319194   21.328013   24.642739 H          1 MOL1         0.0833
      17    H11     21.512360   20.743572   23.519512 H          1 MOL1         0.0833
      18    C7      19.510162   20.994664   22.684889 C.3        1 MOL1        -0.1684
      19    H12     18.478444   20.684588   22.894973 H          1 MOL1         0.0833
      20    H13     19.471070   22.092404   22.663430 H          1 MOL1         0.0833
      21    C8      19.934449   20.541074   21.270109 C.3        1 MOL1        -0.1684
      22    H14     20.928674   20.940928   21.028873 H          1 MOL1         0.0833
      23    H15     19.247521   21.018173   20.557533 H          1 MOL1         0.0833
      24    O1      18.984313   18.693843   24.324590 O.3        1 MOL1        -0.5508
      25    H16     18.873798   18.626842   23.355404 H          1 MOL1         0.3780
@<TRIPOS>BOND
    1     1     2    1
    2     1     3    1
    3     1     4    1
    4     4     5    1
    5     4     6    1
    6     4     7    1
    7     7     8    1
    8     7     9    1
    9     7    10    1
   10    10    11    1
   11    10    12    1
   12    10    13    1
   13    13    14    1
   14    13    15    1
   15    15    16    1
   16    15    17    1
   17    15    18    1
   18    18    19    1
   19    18    20    1
   20     1    21    1
   21    18    21    1
   22    21    22    1
   23    21    23    1
   24    13    24    1
   25    24    25    1
@<TRIPOS>SUBSTRUCTURE
       1 MOL1            1 RESIDUE      1      MOL     
@<SCITEGIC>MOL_PROPERTY
VM2 Rank
SciTegic.value.IntegerValue
40

@<SCITEGIC>MOL_PROPERTY
Conf_Id
SciTegic.value.IntegerValue
1625

@<SCITEGIC>MOL_PROPERTY
Probability
SciTegic.value.DoubleValue
0.63

@<SCITEGIC>MOL_PROPERTY
Sum Probability
SciTegic.value.DoubleValue
89.25

@<SCITEGIC>MOL_PROPERTY
Delta G
SciTegic.value.DoubleValue
1.195

@<SCITEGIC>MOL_PROPERTY
G
SciTegic.value.DoubleValue
63.271

@<SCITEGIC>MOL_PROPERTY
E
SciTegic.value.DoubleValue
31.217

@<SCITEGIC>MOL_PROPERTY
-TS
SciTegic.value.DoubleValue
32.053

@<SCITEGIC>MOL_PROPERTY
U+W
SciTegic.value.DoubleValue
10.650

@<SCITEGIC>MOL_PROPERTY
U
SciTegic.value.DoubleValue
11.809

@<SCITEGIC>MOL_PROPERTY
W
SciTegic.value.DoubleValue
-1.159

@<SCITEGIC>MOL_PROPERTY
W(PB)
SciTegic.value.DoubleValue
-3.265

@<SCITEGIC>MOL_PROPERTY
W(SA)
SciTegic.value.DoubleValue
2.105

@<SCITEGIC>MOL_PROPERTY
Valence
SciTegic.value.DoubleValue
19.951

@<SCITEGIC>MOL_PROPERTY
Coulomb
SciTegic.value.DoubleValue
-10.074

@<SCITEGIC>MOL_PROPERTY
VdW
SciTegic.value.DoubleValue
1.932

@<SCITEGIC>MOL_PROPERTY
VdW6
SciTegic.value.DoubleValue
-12.999

@<SCITEGIC>MOL_PROPERTY
VdW12
SciTegic.value.DoubleValue
14.931

@<SCITEGIC>MOL_PROPERTY
Bond
SciTegic.value.DoubleValue
0.347

@<SCITEGIC>MOL_PROPERTY
Angle
SciTegic.value.DoubleValue
6.175

@<SCITEGIC>MOL_PROPERTY
Pdih
SciTegic.value.DoubleValue
13.428

@<SCITEGIC>MOL_PROPERTY
Idih
SciTegic.value.DoubleValue
0.000

@<SCITEGIC>MOL_PROPERTY
Tether
SciTegic.value.DoubleValue
0.000

@<TRIPOS>MOLECULE
guest-s17_vm2.mol2 : vm2 ligand conformer 41
          25          25           1
SMALL
USER_CHARGES
 
@<TRIPOS>ATOM
       1    C1      21.053861   19.528449   20.987466 C.3        1 MOL1        -0.1684
       2    H1      21.876187   19.880980   21.620278 H          1 MOL1         0.0833
       3    H2      21.409978   19.680497   19.959534 H          1 MOL1         0.0833
       4    C2      20.839521   18.006610   21.180759 C.3        1 MOL1        -0.1684
       5    H3      20.084047   17.652888   20.466259 H          1 MOL1         0.0833
       6    H4      21.774423   17.503632   20.898402 H          1 MOL1         0.0833
       7    C3      20.451844   17.523878   22.602040 C.3        1 MOL1        -0.1684
       8    H5      20.625890   16.439916   22.634746 H          1 MOL1         0.0833
       9    H6      19.373731   17.630223   22.764882 H          1 MOL1         0.0833
      10    C4      21.250108   18.175461   23.765674 C.3        1 MOL1        -0.1760
      11    H7      21.475649   17.386784   24.495258 H          1 MOL1         0.0833
      12    H8      22.229190   18.523374   23.415194 H          1 MOL1         0.0833
      13    C5      20.532035   19.308011   24.547057 C.3        1 MOL1         0.1219
      14    H9      21.213634   19.601322   25.358510 H          1 MOL1         0.0790
      15    C6      20.208897   20.606405   23.760669 C.3        1 MOL1        -0.1760
      16    H10     19.802836   21.326214   24.483148 H          1 MOL1         0.0833
      17    H11     21.137941   21.066762   23.403389 H          1 MOL1         0.0833
      18    C7      19.184618   20.473468   22.599506 C.3        1 MOL1        -0.1684
      19    H12     18.516687   21.344893   22.630969 H          1 MOL1         0.0833
      20    H13     18.521780   19.616249   22.760824 H          1 MOL1         0.0833
      21    C8      19.802832   20.421972   21.178853 C.3        1 MOL1        -0.1684
      22    H14     20.082610   21.446036   20.896382 H          1 MOL1         0.0833
      23    H15     19.026777   20.117691   20.463626 H          1 MOL1         0.0833
      24    O1      19.340284   18.798747   25.137976 O.3        1 MOL1        -0.5508
      25    H16     18.903296   19.553981   25.581331 H          1 MOL1         0.3780
@<TRIPOS>BOND
    1     1     2    1
    2     1     3    1
    3     1     4    1
    4     4     5    1
    5     4     6    1
    6     4     7    1
    7     7     8    1
    8     7     9    1
    9     7    10    1
   10    10    11    1
   11    10    12    1
   12    10    13    1
   13    13    14    1
   14    13    15    1
   15    15    16    1
   16    15    17    1
   17    15    18    1
   18    18    19    1
   19    18    20    1
   20     1    21    1
   21    18    21    1
   22    21    22    1
   23    21    23    1
   24    13    24    1
   25    24    25    1
@<TRIPOS>SUBSTRUCTURE
       1 MOL1            1 RESIDUE      1      MOL     
@<SCITEGIC>MOL_PROPERTY
VM2 Rank
SciTegic.value.IntegerValue
41

@<SCITEGIC>MOL_PROPERTY
Conf_Id
SciTegic.value.IntegerValue
644

@<SCITEGIC>MOL_PROPERTY
Probability
SciTegic.value.DoubleValue
0.59

@<SCITEGIC>MOL_PROPERTY
Sum Probability
SciTegic.value.DoubleValue
89.84

@<SCITEGIC>MOL_PROPERTY
Delta G
SciTegic.value.DoubleValue
1.238

@<SCITEGIC>MOL_PROPERTY
G
SciTegic.value.DoubleValue
63.314

@<SCITEGIC>MOL_PROPERTY
E
SciTegic.value.DoubleValue
30.500

@<SCITEGIC>MOL_PROPERTY
-TS
SciTegic.value.DoubleValue
32.814

@<SCITEGIC>MOL_PROPERTY
U+W
SciTegic.value.DoubleValue
9.932

@<SCITEGIC>MOL_PROPERTY
U
SciTegic.value.DoubleValue
12.093

@<SCITEGIC>MOL_PROPERTY
W
SciTegic.value.DoubleValue
-2.161

@<SCITEGIC>MOL_PROPERTY
W(PB)
SciTegic.value.DoubleValue
-4.282

@<SCITEGIC>MOL_PROPERTY
W(SA)
SciTegic.value.DoubleValue
2.121

@<SCITEGIC>MOL_PROPERTY
Valence
SciTegic.value.DoubleValue
16.788

@<SCITEGIC>MOL_PROPERTY
Coulomb
SciTegic.value.DoubleValue
-7.596

@<SCITEGIC>MOL_PROPERTY
VdW
SciTegic.value.DoubleValue
2.902

@<SCITEGIC>MOL_PROPERTY
VdW6
SciTegic.value.DoubleValue
-13.303

@<SCITEGIC>MOL_PROPERTY
VdW12
SciTegic.value.DoubleValue
16.205

@<SCITEGIC>MOL_PROPERTY
Bond
SciTegic.value.DoubleValue
0.495

@<SCITEGIC>MOL_PROPERTY
Angle
SciTegic.value.DoubleValue
5.823

@<SCITEGIC>MOL_PROPERTY
Pdih
SciTegic.value.DoubleValue
10.470

@<SCITEGIC>MOL_PROPERTY
Idih
SciTegic.value.DoubleValue
0.000

@<SCITEGIC>MOL_PROPERTY
Tether
SciTegic.value.DoubleValue
0.000

@<TRIPOS>MOLECULE
guest-s17_vm2.mol2 : vm2 ligand conformer 42
          25          25           1
SMALL
USER_CHARGES
 
@<TRIPOS>ATOM
       1    C1      21.054074   19.527601   20.987403 C.3        1 MOL1        -0.1684
       2    H1      21.875501   19.882347   21.620145 H          1 MOL1         0.0833
       3    H2      21.410373   19.679026   19.959441 H          1 MOL1         0.0833
       4    C2      20.840233   18.005560   21.181695 C.3        1 MOL1        -0.1684
       5    H3      20.085685   17.650988   20.466618 H          1 MOL1         0.0833
       6    H4      21.775631   17.502596   20.900926 H          1 MOL1         0.0833
       7    C3      20.450758   17.524705   22.603028 C.3        1 MOL1        -0.1684
       8    H5      20.622635   16.440353   22.636814 H          1 MOL1         0.0833
       9    H6      19.372606   17.634727   22.763296 H          1 MOL1         0.0833
      10    C4      21.251617   18.178202   23.763497 C.3        1 MOL1        -0.1760
      11    H7      21.493356   17.389534   24.487756 H          1 MOL1         0.0833
      12    H8      22.225481   18.534106   23.406257 H          1 MOL1         0.0833
      13    C5      20.532070   19.308229   24.547042 C.3        1 MOL1         0.1219
      14    H9      21.213487   19.602094   25.358448 H          1 MOL1         0.0790
      15    C6      20.206008   20.607255   23.762776 C.3        1 MOL1        -0.1760
      16    H10     19.788897   21.315395   24.490601 H          1 MOL1         0.0833
      17    H11     21.132811   21.076861   23.412078 H          1 MOL1         0.0833
      18    C7      19.184745   20.474816   22.598599 C.3        1 MOL1        -0.1684
      19    H12     18.518612   21.347556   22.629022 H          1 MOL1         0.0833
      20    H13     18.519277   19.620180   22.762634 H          1 MOL1         0.0833
      21    C8      19.802869   20.420622   21.177913 C.3        1 MOL1        -0.1684
      22    H14     20.082235   21.444311   20.893719 H          1 MOL1         0.0833
      23    H15     19.026688   20.115006   20.463411 H          1 MOL1         0.0833
      24    O1      19.341627   18.796009   25.138047 O.3        1 MOL1        -0.5508
      25    H16     19.587966   17.960016   25.583394 H          1 MOL1         0.3780
@<TRIPOS>BOND
    1     1     2    1
    2     1     3    1
    3     1     4    1
    4     4     5    1
    5     4     6    1
    6     4     7    1
    7     7     8    1
    8     7     9    1
    9     7    10    1
   10    10    11    1
   11    10    12    1
   12    10    13    1
   13    13    14    1
   14    13    15    1
   15    15    16    1
   16    15    17    1
   17    15    18    1
   18    18    19    1
   19    18    20    1
   20     1    21    1
   21    18    21    1
   22    21    22    1
   23    21    23    1
   24    13    24    1
   25    24    25    1
@<TRIPOS>SUBSTRUCTURE
       1 MOL1            1 RESIDUE      1      MOL     
@<SCITEGIC>MOL_PROPERTY
VM2 Rank
SciTegic.value.IntegerValue
42

@<SCITEGIC>MOL_PROPERTY
Conf_Id
SciTegic.value.IntegerValue
1579

@<SCITEGIC>MOL_PROPERTY
Probability
SciTegic.value.DoubleValue
0.57

@<SCITEGIC>MOL_PROPERTY
Sum Probability
SciTegic.value.DoubleValue
90.41

@<SCITEGIC>MOL_PROPERTY
Delta G
SciTegic.value.DoubleValue
1.261

@<SCITEGIC>MOL_PROPERTY
G
SciTegic.value.DoubleValue
63.336

@<SCITEGIC>MOL_PROPERTY
E
SciTegic.value.DoubleValue
30.523

@<SCITEGIC>MOL_PROPERTY
-TS
SciTegic.value.DoubleValue
32.814

@<SCITEGIC>MOL_PROPERTY
U+W
SciTegic.value.DoubleValue
9.955

@<SCITEGIC>MOL_PROPERTY
U
SciTegic.value.DoubleValue
12.093

@<SCITEGIC>MOL_PROPERTY
W
SciTegic.value.DoubleValue
-2.139

@<SCITEGIC>MOL_PROPERTY
W(PB)
SciTegic.value.DoubleValue
-4.252

@<SCITEGIC>MOL_PROPERTY
W(SA)
SciTegic.value.DoubleValue
2.114

@<SCITEGIC>MOL_PROPERTY
Valence
SciTegic.value.DoubleValue
16.788

@<SCITEGIC>MOL_PROPERTY
Coulomb
SciTegic.value.DoubleValue
-7.596

@<SCITEGIC>MOL_PROPERTY
VdW
SciTegic.value.DoubleValue
2.902

@<SCITEGIC>MOL_PROPERTY
VdW6
SciTegic.value.DoubleValue
-13.303

@<SCITEGIC>MOL_PROPERTY
VdW12
SciTegic.value.DoubleValue
16.205

@<SCITEGIC>MOL_PROPERTY
Bond
SciTegic.value.DoubleValue
0.495

@<SCITEGIC>MOL_PROPERTY
Angle
SciTegic.value.DoubleValue
5.823

@<SCITEGIC>MOL_PROPERTY
Pdih
SciTegic.value.DoubleValue
10.470

@<SCITEGIC>MOL_PROPERTY
Idih
SciTegic.value.DoubleValue
0.000

@<SCITEGIC>MOL_PROPERTY
Tether
SciTegic.value.DoubleValue
0.000

@<TRIPOS>MOLECULE
guest-s17_vm2.mol2 : vm2 ligand conformer 43
          25          25           1
SMALL
USER_CHARGES
 
@<TRIPOS>ATOM
       1    C1      20.225331   19.143363   20.616312 C.3        1 MOL1        -0.1684
       2    H1      19.186046   18.799089   20.527592 H          1 MOL1         0.0833
       3    H2      20.567904   19.316371   19.586910 H          1 MOL1         0.0833
       4    C2      21.106999   18.023686   21.215599 C.3        1 MOL1        -0.1684
       5    H3      21.026485   17.152165   20.551527 H          1 MOL1         0.0833
       6    H4      22.164430   18.319341   21.186224 H          1 MOL1         0.0833
       7    C3      20.714976   17.573413   22.642097 C.3        1 MOL1        -0.1684
       8    H5      21.072780   16.541976   22.765233 H          1 MOL1         0.0833
       9    H6      19.624151   17.507734   22.728459 H          1 MOL1         0.0833
      10    C4      21.355155   18.419096   23.782537 C.3        1 MOL1        -0.1760
      11    H7      21.820631   17.719212   24.488859 H          1 MOL1         0.0833
      12    H8      22.185262   19.023522   23.395708 H          1 MOL1         0.0833
      13    C5      20.411711   19.322675   24.614030 C.3        1 MOL1         0.1219
      14    H9      20.956369   19.581784   25.533385 H          1 MOL1         0.0790
      15    C6      20.022472   20.665438   23.954346 C.3        1 MOL1        -0.1760
      16    H10     19.355721   21.188268   24.652969 H          1 MOL1         0.0833
      17    H11     20.913170   21.302017   23.876008 H          1 MOL1         0.0833
      18    C7      19.312501   20.587030   22.579023 C.3        1 MOL1        -0.1684
      19    H12     18.570862   19.778441   22.565601 H          1 MOL1         0.0833
      20    H13     18.730543   21.511393   22.460782 H          1 MOL1         0.0833
      21    C8      20.278504   20.492252   21.369366 C.3        1 MOL1        -0.1684
      22    H14     21.311618   20.724666   21.660047 H          1 MOL1         0.0833
      23    H15     19.993066   21.277905   20.656299 H          1 MOL1         0.0833
      24    O1      19.236351   18.616047   24.986691 O.3        1 MOL1        -0.5508
      25    H16     18.764901   18.435608   24.150090 H          1 MOL1         0.3780
@<TRIPOS>BOND
    1     1     2    1
    2     1     3    1
    3     1     4    1
    4     4     5    1
    5     4     6    1
    6     4     7    1
    7     7     8    1
    8     7     9    1
    9     7    10    1
   10    10    11    1
   11    10    12    1
   12    10    13    1
   13    13    14    1
   14    13    15    1
   15    15    16    1
   16    15    17    1
   17    15    18    1
   18    18    19    1
   19    18    20    1
   20     1    21    1
   21    18    21    1
   22    21    22    1
   23    21    23    1
   24    13    24    1
   25    24    25    1
@<TRIPOS>SUBSTRUCTURE
       1 MOL1            1 RESIDUE      1      MOL     
@<SCITEGIC>MOL_PROPERTY
VM2 Rank
SciTegic.value.IntegerValue
43

@<SCITEGIC>MOL_PROPERTY
Conf_Id
SciTegic.value.IntegerValue
551

@<SCITEGIC>MOL_PROPERTY
Probability
SciTegic.value.DoubleValue
0.57

@<SCITEGIC>MOL_PROPERTY
Sum Probability
SciTegic.value.DoubleValue
90.97

@<SCITEGIC>MOL_PROPERTY
Delta G
SciTegic.value.DoubleValue
1.262

@<SCITEGIC>MOL_PROPERTY
G
SciTegic.value.DoubleValue
63.337

@<SCITEGIC>MOL_PROPERTY
E
SciTegic.value.DoubleValue
31.413

@<SCITEGIC>MOL_PROPERTY
-TS
SciTegic.value.DoubleValue
31.924

@<SCITEGIC>MOL_PROPERTY
U+W
SciTegic.value.DoubleValue
10.846

@<SCITEGIC>MOL_PROPERTY
U
SciTegic.value.DoubleValue
12.343

@<SCITEGIC>MOL_PROPERTY
W
SciTegic.value.DoubleValue
-1.497

@<SCITEGIC>MOL_PROPERTY
W(PB)
SciTegic.value.DoubleValue
-3.626

@<SCITEGIC>MOL_PROPERTY
W(SA)
SciTegic.value.DoubleValue
2.129

@<SCITEGIC>MOL_PROPERTY
Valence
SciTegic.value.DoubleValue
19.544

@<SCITEGIC>MOL_PROPERTY
Coulomb
SciTegic.value.DoubleValue
-9.330

@<SCITEGIC>MOL_PROPERTY
VdW
SciTegic.value.DoubleValue
2.129

@<SCITEGIC>MOL_PROPERTY
VdW6
SciTegic.value.DoubleValue
-12.582

@<SCITEGIC>MOL_PROPERTY
VdW12
SciTegic.value.DoubleValue
14.712

@<SCITEGIC>MOL_PROPERTY
Bond
SciTegic.value.DoubleValue
0.361

@<SCITEGIC>MOL_PROPERTY
Angle
SciTegic.value.DoubleValue
4.757

@<SCITEGIC>MOL_PROPERTY
Pdih
SciTegic.value.DoubleValue
14.426

@<SCITEGIC>MOL_PROPERTY
Idih
SciTegic.value.DoubleValue
0.000

@<SCITEGIC>MOL_PROPERTY
Tether
SciTegic.value.DoubleValue
0.000

@<TRIPOS>MOLECULE
guest-s17_vm2.mol2 : vm2 ligand conformer 44
          25          25           1
SMALL
USER_CHARGES
 
@<TRIPOS>ATOM
       1    C1      20.518494   19.200487   20.742191 C.3        1 MOL1        -0.1684
       2    H1      20.929371   19.373970   19.738042 H          1 MOL1         0.0833
       3    H2      19.576195   18.660408   20.579072 H          1 MOL1         0.0833
       4    C2      21.539831   18.309849   21.494766 C.3        1 MOL1        -0.1684
       5    H3      22.072045   17.701561   20.750518 H          1 MOL1         0.0833
       6    H4      22.317562   18.935683   21.950898 H          1 MOL1         0.0833
       7    C3      20.943236   17.328408   22.538770 C.3        1 MOL1        -0.1684
       8    H5      21.773208   16.871915   23.095185 H          1 MOL1         0.0833
       9    H6      20.448666   16.503221   22.008377 H          1 MOL1         0.0833
      10    C4      19.934865   17.929308   23.548164 C.3        1 MOL1        -0.1760
      11    H7      18.968912   18.065681   23.050531 H          1 MOL1         0.0833
      12    H8      19.739671   17.181443   24.328280 H          1 MOL1         0.0833
      13    C5      20.410177   19.255715   24.192048 C.3        1 MOL1         0.1219
      14    H9      21.418768   19.499324   23.836575 H          1 MOL1         0.0790
      15    C6      19.492649   20.458865   23.879613 C.3        1 MOL1        -0.1760
      16    H10     18.572139   20.368688   24.471506 H          1 MOL1         0.0833
      17    H11     19.995678   21.365706   24.239631 H          1 MOL1         0.0833
      18    C7      19.099070   20.667160   22.391292 C.3        1 MOL1        -0.1684
      19    H12     18.636359   21.660803   22.316614 H          1 MOL1         0.0833
      20    H13     18.306170   19.966471   22.099862 H          1 MOL1         0.0833
      21    C8      20.262367   20.600562   21.369194 C.3        1 MOL1        -0.1684
      22    H14     21.183353   21.019017   21.796868 H          1 MOL1         0.0833
      23    H15     19.996089   21.273529   20.542456 H          1 MOL1         0.0833
      24    O1      20.463311   19.092647   25.603962 O.3        1 MOL1        -0.5508
      25    H16     21.091929   18.360674   25.776110 H          1 MOL1         0.3780
@<TRIPOS>BOND
    1     1     2    1
    2     1     3    1
    3     1     4    1
    4     4     5    1
    5     4     6    1
    6     4     7    1
    7     7     8    1
    8     7     9    1
    9     7    10    1
   10    10    11    1
   11    10    12    1
   12    10    13    1
   13    13    14    1
   14    13    15    1
   15    15    16    1
   16    15    17    1
   17    15    18    1
   18    18    19    1
   19    18    20    1
   20     1    21    1
   21    18    21    1
   22    21    22    1
   23    21    23    1
   24    13    24    1
   25    24    25    1
@<TRIPOS>SUBSTRUCTURE
       1 MOL1            1 RESIDUE      1      MOL     
@<SCITEGIC>MOL_PROPERTY
VM2 Rank
SciTegic.value.IntegerValue
44

@<SCITEGIC>MOL_PROPERTY
Conf_Id
SciTegic.value.IntegerValue
1338

@<SCITEGIC>MOL_PROPERTY
Probability
SciTegic.value.DoubleValue
0.54

@<SCITEGIC>MOL_PROPERTY
Sum Probability
SciTegic.value.DoubleValue
91.52

@<SCITEGIC>MOL_PROPERTY
Delta G
SciTegic.value.DoubleValue
1.284

@<SCITEGIC>MOL_PROPERTY
G
SciTegic.value.DoubleValue
63.359

@<SCITEGIC>MOL_PROPERTY
E
SciTegic.value.DoubleValue
30.887

@<SCITEGIC>MOL_PROPERTY
-TS
SciTegic.value.DoubleValue
32.472

@<SCITEGIC>MOL_PROPERTY
U+W
SciTegic.value.DoubleValue
10.320

@<SCITEGIC>MOL_PROPERTY
U
SciTegic.value.DoubleValue
12.311

@<SCITEGIC>MOL_PROPERTY
W
SciTegic.value.DoubleValue
-1.992

@<SCITEGIC>MOL_PROPERTY
W(PB)
SciTegic.value.DoubleValue
-4.137

@<SCITEGIC>MOL_PROPERTY
W(SA)
SciTegic.value.DoubleValue
2.145

@<SCITEGIC>MOL_PROPERTY
Valence
SciTegic.value.DoubleValue
17.914

@<SCITEGIC>MOL_PROPERTY
Coulomb
SciTegic.value.DoubleValue
-8.725

@<SCITEGIC>MOL_PROPERTY
VdW
SciTegic.value.DoubleValue
3.122

@<SCITEGIC>MOL_PROPERTY
VdW6
SciTegic.value.DoubleValue
-12.447

@<SCITEGIC>MOL_PROPERTY
VdW12
SciTegic.value.DoubleValue
15.569

@<SCITEGIC>MOL_PROPERTY
Bond
SciTegic.value.DoubleValue
0.452

@<SCITEGIC>MOL_PROPERTY
Angle
SciTegic.value.DoubleValue
4.377

@<SCITEGIC>MOL_PROPERTY
Pdih
SciTegic.value.DoubleValue
13.085

@<SCITEGIC>MOL_PROPERTY
Idih
SciTegic.value.DoubleValue
0.000

@<SCITEGIC>MOL_PROPERTY
Tether
SciTegic.value.DoubleValue
0.000

@<TRIPOS>MOLECULE
guest-s17_vm2.mol2 : vm2 ligand conformer 45
          25          25           1
SMALL
USER_CHARGES
 
@<TRIPOS>ATOM
       1    C1      20.462294   19.350809   20.742064 C.3        1 MOL1        -0.1684
       2    H1      20.878777   19.520343   19.739551 H          1 MOL1         0.0833
       3    H2      19.422759   19.038952   20.573738 H          1 MOL1         0.0833
       4    C2      21.295308   18.205641   21.385198 C.3        1 MOL1        -0.1684
       5    H3      21.605563   17.541829   20.566431 H          1 MOL1         0.0833
       6    H4      22.230038   18.588144   21.816703 H          1 MOL1         0.0833
       7    C3      20.533995   17.325678   22.409134 C.3        1 MOL1        -0.1684
       8    H5      20.935466   16.304960   22.346212 H          1 MOL1         0.0833
       9    H6      19.482046   17.231671   22.110547 H          1 MOL1         0.0833
      10    C4      20.643155   17.767122   23.894597 C.3        1 MOL1        -0.1760
      11    H7      19.938913   17.167399   24.486359 H          1 MOL1         0.0833
      12    H8      21.644155   17.509675   24.264372 H          1 MOL1         0.0833
      13    C5      20.401536   19.263771   24.192429 C.3        1 MOL1         0.1219
      14    H9      21.275895   19.823580   23.838772 H          1 MOL1         0.0790
      15    C6      19.117846   19.828066   23.533960 C.3        1 MOL1        -0.1760
      16    H10     18.554615   19.029976   23.038859 H          1 MOL1         0.0833
      17    H11     18.435594   20.208751   24.305707 H          1 MOL1         0.0833
      18    C7      19.385183   20.964150   22.516800 C.3        1 MOL1        -0.1684
      19    H12     19.622300   21.884860   23.067168 H          1 MOL1         0.0833
      20    H13     18.450491   21.170002   21.977516 H          1 MOL1         0.0833
      21    C8      20.515345   20.711042   21.483473 C.3        1 MOL1        -0.1684
      22    H14     21.501344   20.847056   21.945962 H          1 MOL1         0.0833
      23    H15     20.447166   21.509523   20.731842 H          1 MOL1         0.0833
      24    O1      20.309337   19.426720   25.602345 O.3        1 MOL1        -0.5508
      25    H16     20.211093   20.388121   25.765552 H          1 MOL1         0.3780
@<TRIPOS>BOND
    1     1     2    1
    2     1     3    1
    3     1     4    1
    4     4     5    1
    5     4     6    1
    6     4     7    1
    7     7     8    1
    8     7     9    1
    9     7    10    1
   10    10    11    1
   11    10    12    1
   12    10    13    1
   13    13    14    1
   14    13    15    1
   15    15    16    1
   16    15    17    1
   17    15    18    1
   18    18    19    1
   19    18    20    1
   20     1    21    1
   21    18    21    1
   22    21    22    1
   23    21    23    1
   24    13    24    1
   25    24    25    1
@<TRIPOS>SUBSTRUCTURE
       1 MOL1            1 RESIDUE      1      MOL     
@<SCITEGIC>MOL_PROPERTY
VM2 Rank
SciTegic.value.IntegerValue
45

@<SCITEGIC>MOL_PROPERTY
Conf_Id
SciTegic.value.IntegerValue
1870

@<SCITEGIC>MOL_PROPERTY
Probability
SciTegic.value.DoubleValue
0.53

@<SCITEGIC>MOL_PROPERTY
Sum Probability
SciTegic.value.DoubleValue
92.05

@<SCITEGIC>MOL_PROPERTY
Delta G
SciTegic.value.DoubleValue
1.297

@<SCITEGIC>MOL_PROPERTY
G
SciTegic.value.DoubleValue
63.372

@<SCITEGIC>MOL_PROPERTY
E
SciTegic.value.DoubleValue
30.900

@<SCITEGIC>MOL_PROPERTY
-TS
SciTegic.value.DoubleValue
32.472

@<SCITEGIC>MOL_PROPERTY
U+W
SciTegic.value.DoubleValue
10.333

@<SCITEGIC>MOL_PROPERTY
U
SciTegic.value.DoubleValue
12.311

@<SCITEGIC>MOL_PROPERTY
W
SciTegic.value.DoubleValue
-1.978

@<SCITEGIC>MOL_PROPERTY
W(PB)
SciTegic.value.DoubleValue
-4.130

@<SCITEGIC>MOL_PROPERTY
W(SA)
SciTegic.value.DoubleValue
2.152

@<SCITEGIC>MOL_PROPERTY
Valence
SciTegic.value.DoubleValue
17.913

@<SCITEGIC>MOL_PROPERTY
Coulomb
SciTegic.value.DoubleValue
-8.725

@<SCITEGIC>MOL_PROPERTY
VdW
SciTegic.value.DoubleValue
3.123

@<SCITEGIC>MOL_PROPERTY
VdW6
SciTegic.value.DoubleValue
-12.447

@<SCITEGIC>MOL_PROPERTY
VdW12
SciTegic.value.DoubleValue
15.570

@<SCITEGIC>MOL_PROPERTY
Bond
SciTegic.value.DoubleValue
0.452

@<SCITEGIC>MOL_PROPERTY
Angle
SciTegic.value.DoubleValue
4.377

@<SCITEGIC>MOL_PROPERTY
Pdih
SciTegic.value.DoubleValue
13.085

@<SCITEGIC>MOL_PROPERTY
Idih
SciTegic.value.DoubleValue
0.000

@<SCITEGIC>MOL_PROPERTY
Tether
SciTegic.value.DoubleValue
0.000

@<TRIPOS>MOLECULE
guest-s17_vm2.mol2 : vm2 ligand conformer 46
          25          25           1
SMALL
USER_CHARGES
 
@<TRIPOS>ATOM
       1    C1      20.462369   19.349718   20.737577 C.3        1 MOL1        -0.1684
       2    H1      20.880353   19.520106   19.735837 H          1 MOL1         0.0833
       3    H2      19.422499   19.039592   20.568047 H          1 MOL1         0.0833
       4    C2      21.292690   18.203332   21.380705 C.3        1 MOL1        -0.1684
       5    H3      21.597440   17.535845   20.562850 H          1 MOL1         0.0833
       6    H4      22.230243   18.583330   21.808266 H          1 MOL1         0.0833
       7    C3      20.530191   17.330727   22.409290 C.3        1 MOL1        -0.1684
       8    H5      20.923966   16.307079   22.344855 H          1 MOL1         0.0833
       9    H6      19.476022   17.243673   22.116535 H          1 MOL1         0.0833
      10    C4      20.651836   17.772287   23.893397 C.3        1 MOL1        -0.1760
      11    H7      19.955178   17.166504   24.488353 H          1 MOL1         0.0833
      12    H8      21.657919   17.516326   24.250177 H          1 MOL1         0.0833
      13    C5      20.402944   19.267468   24.197482 C.3        1 MOL1         0.1219
      14    H9      21.273775   19.837145   23.850779 H          1 MOL1         0.0790
      15    C6      19.119418   19.831442   23.538292 C.3        1 MOL1        -0.1760
      16    H10     18.547577   19.032187   23.055428 H          1 MOL1         0.0833
      17    H11     18.448183   20.224334   24.313752 H          1 MOL1         0.0833
      18    C7      19.384588   20.960959   22.512645 C.3        1 MOL1        -0.1684
      19    H12     19.619540   21.884339   23.059579 H          1 MOL1         0.0833
      20    H13     18.449543   21.162423   21.972454 H          1 MOL1         0.0833
      21    C8      20.516677   20.707791   21.481761 C.3        1 MOL1        -0.1684
      22    H14     21.501708   20.841036   21.947045 H          1 MOL1         0.0833
      23    H15     20.451681   21.507880   20.731581 H          1 MOL1         0.0833
      24    O1      20.303287   19.419276   25.608851 O.3        1 MOL1        -0.5508
      25    H16     21.146529   19.094787   25.988262 H          1 MOL1         0.3780
@<TRIPOS>BOND
    1     1     2    1
    2     1     3    1
    3     1     4    1
    4     4     5    1
    5     4     6    1
    6     4     7    1
    7     7     8    1
    8     7     9    1
    9     7    10    1
   10    10    11    1
   11    10    12    1
   12    10    13    1
   13    13    14    1
   14    13    15    1
   15    15    16    1
   16    15    17    1
   17    15    18    1
   18    18    19    1
   19    18    20    1
   20     1    21    1
   21    18    21    1
   22    21    22    1
   23    21    23    1
   24    13    24    1
   25    24    25    1
@<TRIPOS>SUBSTRUCTURE
       1 MOL1            1 RESIDUE      1      MOL     
@<SCITEGIC>MOL_PROPERTY
VM2 Rank
SciTegic.value.IntegerValue
46

@<SCITEGIC>MOL_PROPERTY
Conf_Id
SciTegic.value.IntegerValue
1660

@<SCITEGIC>MOL_PROPERTY
Probability
SciTegic.value.DoubleValue
0.47

@<SCITEGIC>MOL_PROPERTY
Sum Probability
SciTegic.value.DoubleValue
92.52

@<SCITEGIC>MOL_PROPERTY
Delta G
SciTegic.value.DoubleValue
1.367

@<SCITEGIC>MOL_PROPERTY
G
SciTegic.value.DoubleValue
63.442

@<SCITEGIC>MOL_PROPERTY
E
SciTegic.value.DoubleValue
31.043

@<SCITEGIC>MOL_PROPERTY
-TS
SciTegic.value.DoubleValue
32.399

@<SCITEGIC>MOL_PROPERTY
U+W
SciTegic.value.DoubleValue
10.476

@<SCITEGIC>MOL_PROPERTY
U
SciTegic.value.DoubleValue
12.694

@<SCITEGIC>MOL_PROPERTY
W
SciTegic.value.DoubleValue
-2.219

@<SCITEGIC>MOL_PROPERTY
W(PB)
SciTegic.value.DoubleValue
-4.362

@<SCITEGIC>MOL_PROPERTY
W(SA)
SciTegic.value.DoubleValue
2.143

@<SCITEGIC>MOL_PROPERTY
Valence
SciTegic.value.DoubleValue
17.937

@<SCITEGIC>MOL_PROPERTY
Coulomb
SciTegic.value.DoubleValue
-8.339

@<SCITEGIC>MOL_PROPERTY
VdW
SciTegic.value.DoubleValue
3.097

@<SCITEGIC>MOL_PROPERTY
VdW6
SciTegic.value.DoubleValue
-12.392

@<SCITEGIC>MOL_PROPERTY
VdW12
SciTegic.value.DoubleValue
15.489

@<SCITEGIC>MOL_PROPERTY
Bond
SciTegic.value.DoubleValue
0.441

@<SCITEGIC>MOL_PROPERTY
Angle
SciTegic.value.DoubleValue
4.414

@<SCITEGIC>MOL_PROPERTY
Pdih
SciTegic.value.DoubleValue
13.082

@<SCITEGIC>MOL_PROPERTY
Idih
SciTegic.value.DoubleValue
0.000

@<SCITEGIC>MOL_PROPERTY
Tether
SciTegic.value.DoubleValue
0.000

@<TRIPOS>MOLECULE
guest-s17_vm2.mol2 : vm2 ligand conformer 47
          25          25           1
SMALL
USER_CHARGES
 
@<TRIPOS>ATOM
       1    C1      20.518325   19.201563   20.737764 C.3        1 MOL1        -0.1684
       2    H1      20.931101   19.375690   19.734508 H          1 MOL1         0.0833
       3    H2      19.577097   18.660044   20.573157 H          1 MOL1         0.0833
       4    C2      21.538781   18.313268   21.493231 C.3        1 MOL1        -0.1684
       5    H3      22.074585   17.706330   20.750481 H          1 MOL1         0.0833
       6    H4      22.313683   18.940293   21.952465 H          1 MOL1         0.0833
       7    C3      20.940629   17.330184   22.534482 C.3        1 MOL1        -0.1684
       8    H5      21.770896   16.870178   23.087673 H          1 MOL1         0.0833
       9    H6      20.442807   16.507824   22.002880 H          1 MOL1         0.0833
      10    C4      19.938199   17.928058   23.552202 C.3        1 MOL1        -0.1760
      11    H7      18.965602   18.059222   23.066590 H          1 MOL1         0.0833
      12    H8      19.759199   17.179683   24.335880 H          1 MOL1         0.0833
      13    C5      20.413455   19.254029   24.197159 C.3        1 MOL1         0.1219
      14    H9      21.426858   19.488409   23.849073 H          1 MOL1         0.0790
      15    C6      19.502113   20.461427   23.878370 C.3        1 MOL1        -0.1760
      16    H10     18.582283   20.380882   24.473098 H          1 MOL1         0.0833
      17    H11     20.009663   21.370719   24.225633 H          1 MOL1         0.0833
      18    C7      19.100229   20.661002   22.391424 C.3        1 MOL1        -0.1684
      19    H12     18.630117   21.651086   22.315300 H          1 MOL1         0.0833
      20    H13     18.310901   19.954028   22.105587 H          1 MOL1         0.0833
      21    C8      20.259282   20.600438   21.364895 C.3        1 MOL1        -0.1684
      22    H14     21.180288   21.022576   21.788878 H          1 MOL1         0.0833
      23    H15     19.986748   21.272068   20.539101 H          1 MOL1         0.0833
      24    O1      20.452986   19.093031   25.610473 O.3        1 MOL1        -0.5508
      25    H16     20.798654   19.931825   25.980933 H          1 MOL1         0.3780
@<TRIPOS>BOND
    1     1     2    1
    2     1     3    1
    3     1     4    1
    4     4     5    1
    5     4     6    1
    6     4     7    1
    7     7     8    1
    8     7     9    1
    9     7    10    1
   10    10    11    1
   11    10    12    1
   12    10    13    1
   13    13    14    1
   14    13    15    1
   15    15    16    1
   16    15    17    1
   17    15    18    1
   18    18    19    1
   19    18    20    1
   20     1    21    1
   21    18    21    1
   22    21    22    1
   23    21    23    1
   24    13    24    1
   25    24    25    1
@<TRIPOS>SUBSTRUCTURE
       1 MOL1            1 RESIDUE      1      MOL     
@<SCITEGIC>MOL_PROPERTY
VM2 Rank
SciTegic.value.IntegerValue
47

@<SCITEGIC>MOL_PROPERTY
Conf_Id
SciTegic.value.IntegerValue
827

@<SCITEGIC>MOL_PROPERTY
Probability
SciTegic.value.DoubleValue
0.47

@<SCITEGIC>MOL_PROPERTY
Sum Probability
SciTegic.value.DoubleValue
92.99

@<SCITEGIC>MOL_PROPERTY
Delta G
SciTegic.value.DoubleValue
1.373

@<SCITEGIC>MOL_PROPERTY
G
SciTegic.value.DoubleValue
63.448

@<SCITEGIC>MOL_PROPERTY
E
SciTegic.value.DoubleValue
31.049

@<SCITEGIC>MOL_PROPERTY
-TS
SciTegic.value.DoubleValue
32.399

@<SCITEGIC>MOL_PROPERTY
U+W
SciTegic.value.DoubleValue
10.482

@<SCITEGIC>MOL_PROPERTY
U
SciTegic.value.DoubleValue
12.694

@<SCITEGIC>MOL_PROPERTY
W
SciTegic.value.DoubleValue
-2.213

@<SCITEGIC>MOL_PROPERTY
W(PB)
SciTegic.value.DoubleValue
-4.351

@<SCITEGIC>MOL_PROPERTY
W(SA)
SciTegic.value.DoubleValue
2.138

@<SCITEGIC>MOL_PROPERTY
Valence
SciTegic.value.DoubleValue
17.937

@<SCITEGIC>MOL_PROPERTY
Coulomb
SciTegic.value.DoubleValue
-8.339

@<SCITEGIC>MOL_PROPERTY
VdW
SciTegic.value.DoubleValue
3.096

@<SCITEGIC>MOL_PROPERTY
VdW6
SciTegic.value.DoubleValue
-12.392

@<SCITEGIC>MOL_PROPERTY
VdW12
SciTegic.value.DoubleValue
15.489

@<SCITEGIC>MOL_PROPERTY
Bond
SciTegic.value.DoubleValue
0.441

@<SCITEGIC>MOL_PROPERTY
Angle
SciTegic.value.DoubleValue
4.414

@<SCITEGIC>MOL_PROPERTY
Pdih
SciTegic.value.DoubleValue
13.082

@<SCITEGIC>MOL_PROPERTY
Idih
SciTegic.value.DoubleValue
0.000

@<SCITEGIC>MOL_PROPERTY
Tether
SciTegic.value.DoubleValue
0.000

@<TRIPOS>MOLECULE
guest-s17_vm2.mol2 : vm2 ligand conformer 48
          25          25           1
SMALL
USER_CHARGES
 
@<TRIPOS>ATOM
       1    C1      20.510044   19.157450   20.719897 C.3        1 MOL1        -0.1684
       2    H1      21.488405   19.059689   20.230239 H          1 MOL1         0.0833
       3    H2      19.771175   19.155249   19.906854 H          1 MOL1         0.0833
       4    C2      20.241563   17.902651   21.586416 C.3        1 MOL1        -0.1684
       5    H3      19.225772   17.934521   21.990673 H          1 MOL1         0.0833
       6    H4      20.231987   17.038076   20.908563 H          1 MOL1         0.0833
       7    C3      21.278165   17.593632   22.697291 C.3        1 MOL1        -0.1684
       8    H5      22.239141   17.360135   22.219213 H          1 MOL1         0.0833
       9    H6      20.969588   16.665063   23.197153 H          1 MOL1         0.0833
      10    C4      21.533831   18.671304   23.790050 C.3        1 MOL1        -0.1760
      11    H7      22.160225   18.200688   24.558927 H          1 MOL1         0.0833
      12    H8      22.163273   19.471757   23.387815 H          1 MOL1         0.0833
      13    C5      20.307547   19.284126   24.517310 C.3        1 MOL1         0.1219
      14    H9      20.634118   19.497881   25.545253 H          1 MOL1         0.0790
      15    C6      19.813291   20.641188   23.953775 C.3        1 MOL1        -0.1760
      16    H10     18.995469   20.984876   24.600762 H          1 MOL1         0.0833
      17    H11     20.612801   21.382360   24.082037 H          1 MOL1         0.0833
      18    C7      19.313744   20.694572   22.483953 C.3        1 MOL1        -0.1684
      19    H12     18.863434   21.686049   22.339060 H          1 MOL1         0.0833
      20    H13     18.491332   19.988393   22.318367 H          1 MOL1         0.0833
      21    C8      20.432543   20.538328   21.420812 C.3        1 MOL1        -0.1684
      22    H14     21.405768   20.804347   21.848900 H          1 MOL1         0.0833
      23    H15     20.267525   21.290028   20.636725 H          1 MOL1         0.0833
      24    O1      19.233271   18.359750   24.590498 O.3        1 MOL1        -0.5508
      25    H16     19.111368   18.048353   23.673658 H          1 MOL1         0.3780
@<TRIPOS>BOND
    1     1     2    1
    2     1     3    1
    3     1     4    1
    4     4     5    1
    5     4     6    1
    6     4     7    1
    7     7     8    1
    8     7     9    1
    9     7    10    1
   10    10    11    1
   11    10    12    1
   12    10    13    1
   13    13    14    1
   14    13    15    1
   15    15    16    1
   16    15    17    1
   17    15    18    1
   18    18    19    1
   19    18    20    1
   20     1    21    1
   21    18    21    1
   22    21    22    1
   23    21    23    1
   24    13    24    1
   25    24    25    1
@<TRIPOS>SUBSTRUCTURE
       1 MOL1            1 RESIDUE      1      MOL     
@<SCITEGIC>MOL_PROPERTY
VM2 Rank
SciTegic.value.IntegerValue
48

@<SCITEGIC>MOL_PROPERTY
Conf_Id
SciTegic.value.IntegerValue
1052

@<SCITEGIC>MOL_PROPERTY
Probability
SciTegic.value.DoubleValue
0.47

@<SCITEGIC>MOL_PROPERTY
Sum Probability
SciTegic.value.DoubleValue
93.46

@<SCITEGIC>MOL_PROPERTY
Delta G
SciTegic.value.DoubleValue
1.374

@<SCITEGIC>MOL_PROPERTY
G
SciTegic.value.DoubleValue
63.449

@<SCITEGIC>MOL_PROPERTY
E
SciTegic.value.DoubleValue
30.675

@<SCITEGIC>MOL_PROPERTY
-TS
SciTegic.value.DoubleValue
32.774

@<SCITEGIC>MOL_PROPERTY
U+W
SciTegic.value.DoubleValue
10.108

@<SCITEGIC>MOL_PROPERTY
U
SciTegic.value.DoubleValue
11.292

@<SCITEGIC>MOL_PROPERTY
W
SciTegic.value.DoubleValue
-1.184

@<SCITEGIC>MOL_PROPERTY
W(PB)
SciTegic.value.DoubleValue
-3.298

@<SCITEGIC>MOL_PROPERTY
W(SA)
SciTegic.value.DoubleValue
2.114

@<SCITEGIC>MOL_PROPERTY
Valence
SciTegic.value.DoubleValue
18.277

@<SCITEGIC>MOL_PROPERTY
Coulomb
SciTegic.value.DoubleValue
-9.503

@<SCITEGIC>MOL_PROPERTY
VdW
SciTegic.value.DoubleValue
2.517

@<SCITEGIC>MOL_PROPERTY
VdW6
SciTegic.value.DoubleValue
-13.881

@<SCITEGIC>MOL_PROPERTY
VdW12
SciTegic.value.DoubleValue
16.398

@<SCITEGIC>MOL_PROPERTY
Bond
SciTegic.value.DoubleValue
0.507

@<SCITEGIC>MOL_PROPERTY
Angle
SciTegic.value.DoubleValue
7.442

@<SCITEGIC>MOL_PROPERTY
Pdih
SciTegic.value.DoubleValue
10.329

@<SCITEGIC>MOL_PROPERTY
Idih
SciTegic.value.DoubleValue
0.000

@<SCITEGIC>MOL_PROPERTY
Tether
SciTegic.value.DoubleValue
0.000

@<TRIPOS>MOLECULE
guest-s17_vm2.mol2 : vm2 ligand conformer 49
          25          25           1
SMALL
USER_CHARGES
 
@<TRIPOS>ATOM
       1    C1      20.413763   19.358083   20.717416 C.3        1 MOL1        -0.1684
       2    H1      21.001874   20.139040   20.216672 H          1 MOL1         0.0833
       3    H2      19.918211   18.799139   19.911823 H          1 MOL1         0.0833
       4    C2      21.380108   18.383691   21.439120 C.3        1 MOL1        -0.1684
       5    H3      21.828205   17.742378   20.667755 H          1 MOL1         0.0833
       6    H4      22.230117   18.931829   21.861285 H          1 MOL1         0.0833
       7    C3      20.738425   17.469407   22.515557 C.3        1 MOL1        -0.1684
       8    H5      21.169307   16.466768   22.389651 H          1 MOL1         0.0833
       9    H6      19.663306   17.333449   22.347915 H          1 MOL1         0.0833
      10    C4      21.029144   17.900078   23.979381 C.3        1 MOL1        -0.1760
      11    H7      20.730313   17.075119   24.639449 H          1 MOL1         0.0833
      12    H8      22.114884   17.994883   24.110462 H          1 MOL1         0.0833
      13    C5      20.355748   19.188416   24.518084 C.3        1 MOL1         0.1219
      14    H9      20.729460   19.303822   25.545716 H          1 MOL1         0.0790
      15    C6      20.730688   20.495172   23.769726 C.3        1 MOL1        -0.1760
      16    H10     20.801068   21.288330   24.525350 H          1 MOL1         0.0833
      17    H11     21.747960   20.415192   23.372892 H          1 MOL1         0.0833
      18    C7      19.765930   21.012373   22.664014 C.3        1 MOL1        -0.1684
      19    H12     20.241842   21.872013   22.173012 H          1 MOL1         0.0833
      20    H13     18.869409   21.417479   23.153364 H          1 MOL1         0.0833
      21    C8      19.301424   20.018673   21.568172 C.3        1 MOL1        -0.1684
      22    H14     18.658244   20.581632   20.877911 H          1 MOL1         0.0833
      23    H15     18.639762   19.252899   21.982976 H          1 MOL1         0.0833
      24    O1      18.948770   19.017106   24.588529 O.3        1 MOL1        -0.5508
      25    H16     18.640114   19.120781   23.668524 H          1 MOL1         0.3780
@<TRIPOS>BOND
    1     1     2    1
    2     1     3    1
    3     1     4    1
    4     4     5    1
    5     4     6    1
    6     4     7    1
    7     7     8    1
    8     7     9    1
    9     7    10    1
   10    10    11    1
   11    10    12    1
   12    10    13    1
   13    13    14    1
   14    13    15    1
   15    15    16    1
   16    15    17    1
   17    15    18    1
   18    18    19    1
   19    18    20    1
   20     1    21    1
   21    18    21    1
   22    21    22    1
   23    21    23    1
   24    13    24    1
   25    24    25    1
@<TRIPOS>SUBSTRUCTURE
       1 MOL1            1 RESIDUE      1      MOL     
@<SCITEGIC>MOL_PROPERTY
VM2 Rank
SciTegic.value.IntegerValue
49

@<SCITEGIC>MOL_PROPERTY
Conf_Id
SciTegic.value.IntegerValue
997

@<SCITEGIC>MOL_PROPERTY
Probability
SciTegic.value.DoubleValue
0.45

@<SCITEGIC>MOL_PROPERTY
Sum Probability
SciTegic.value.DoubleValue
93.91

@<SCITEGIC>MOL_PROPERTY
Delta G
SciTegic.value.DoubleValue
1.398

@<SCITEGIC>MOL_PROPERTY
G
SciTegic.value.DoubleValue
63.474

@<SCITEGIC>MOL_PROPERTY
E
SciTegic.value.DoubleValue
30.700

@<SCITEGIC>MOL_PROPERTY
-TS
SciTegic.value.DoubleValue
32.774

@<SCITEGIC>MOL_PROPERTY
U+W
SciTegic.value.DoubleValue
10.132

@<SCITEGIC>MOL_PROPERTY
U
SciTegic.value.DoubleValue
11.292

@<SCITEGIC>MOL_PROPERTY
W
SciTegic.value.DoubleValue
-1.159

@<SCITEGIC>MOL_PROPERTY
W(PB)
SciTegic.value.DoubleValue
-3.281

@<SCITEGIC>MOL_PROPERTY
W(SA)
SciTegic.value.DoubleValue
2.122

@<SCITEGIC>MOL_PROPERTY
Valence
SciTegic.value.DoubleValue
18.277

@<SCITEGIC>MOL_PROPERTY
Coulomb
SciTegic.value.DoubleValue
-9.503

@<SCITEGIC>MOL_PROPERTY
VdW
SciTegic.value.DoubleValue
2.518

@<SCITEGIC>MOL_PROPERTY
VdW6
SciTegic.value.DoubleValue
-13.881

@<SCITEGIC>MOL_PROPERTY
VdW12
SciTegic.value.DoubleValue
16.399

@<SCITEGIC>MOL_PROPERTY
Bond
SciTegic.value.DoubleValue
0.507

@<SCITEGIC>MOL_PROPERTY
Angle
SciTegic.value.DoubleValue
7.441

@<SCITEGIC>MOL_PROPERTY
Pdih
SciTegic.value.DoubleValue
10.329

@<SCITEGIC>MOL_PROPERTY
Idih
SciTegic.value.DoubleValue
0.000

@<SCITEGIC>MOL_PROPERTY
Tether
SciTegic.value.DoubleValue
0.000

@<TRIPOS>MOLECULE
guest-s17_vm2.mol2 : vm2 ligand conformer 50
          25          25           1
SMALL
USER_CHARGES
 
@<TRIPOS>ATOM
       1    C1      20.461889   19.349721   20.738316 C.3        1 MOL1        -0.1684
       2    H1      20.879058   19.520253   19.736261 H          1 MOL1         0.0833
       3    H2      19.421805   19.039913   20.569565 H          1 MOL1         0.0833
       4    C2      21.292630   18.203163   21.380504 C.3        1 MOL1        -0.1684
       5    H3      21.597258   17.536123   20.562243 H          1 MOL1         0.0833
       6    H4      22.230225   18.583160   21.808053 H          1 MOL1         0.0833
       7    C3      20.531008   17.329967   22.409150 C.3        1 MOL1        -0.1684
       8    H5      20.926455   16.306936   22.345053 H          1 MOL1         0.0833
       9    H6      19.477066   17.241366   22.116019 H          1 MOL1         0.0833
      10    C4      20.651908   17.771868   23.893183 C.3        1 MOL1        -0.1760
      11    H7      19.960688   17.160297   24.487852 H          1 MOL1         0.0833
      12    H8      21.659612   17.522659   24.250776 H          1 MOL1         0.0833
      13    C5      20.400793   19.266688   24.197167 C.3        1 MOL1         0.1219
      14    H9      21.272822   19.835269   23.852187 H          1 MOL1         0.0790
      15    C6      19.117570   19.831950   23.537872 C.3        1 MOL1        -0.1760
      16    H10     18.546909   19.033812   23.051233 H          1 MOL1         0.0833
      17    H11     18.443713   20.227608   24.309494 H          1 MOL1         0.0833
      18    C7      19.385410   20.961701   22.513355 C.3        1 MOL1        -0.1684
      19    H12     19.621816   21.884357   23.060944 H          1 MOL1         0.0833
      20    H13     18.451143   21.165347   21.972580 H          1 MOL1         0.0833
      21    C8      20.517554   20.707479   21.482907 C.3        1 MOL1        -0.1684
      22    H14     21.502498   20.839287   21.948855 H          1 MOL1         0.0833
      23    H15     20.454025   21.507936   20.732991 H          1 MOL1         0.0833
      24    O1      20.305237   19.420462   25.607547 O.3        1 MOL1        -0.5508
      25    H16     19.522245   18.904923   25.890145 H          1 MOL1         0.3780
@<TRIPOS>BOND
    1     1     2    1
    2     1     3    1
    3     1     4    1
    4     4     5    1
    5     4     6    1
    6     4     7    1
    7     7     8    1
    8     7     9    1
    9     7    10    1
   10    10    11    1
   11    10    12    1
   12    10    13    1
   13    13    14    1
   14    13    15    1
   15    15    16    1
   16    15    17    1
   17    15    18    1
   18    18    19    1
   19    18    20    1
   20     1    21    1
   21    18    21    1
   22    21    22    1
   23    21    23    1
   24    13    24    1
   25    24    25    1
@<TRIPOS>SUBSTRUCTURE
       1 MOL1            1 RESIDUE      1      MOL     
@<SCITEGIC>MOL_PROPERTY
VM2 Rank
SciTegic.value.IntegerValue
50

@<SCITEGIC>MOL_PROPERTY
Conf_Id
SciTegic.value.IntegerValue
1367

@<SCITEGIC>MOL_PROPERTY
Probability
SciTegic.value.DoubleValue
0.38

@<SCITEGIC>MOL_PROPERTY
Sum Probability
SciTegic.value.DoubleValue
94.30

@<SCITEGIC>MOL_PROPERTY
Delta G
SciTegic.value.DoubleValue
1.493

@<SCITEGIC>MOL_PROPERTY
G
SciTegic.value.DoubleValue
63.569

@<SCITEGIC>MOL_PROPERTY
E
SciTegic.value.DoubleValue
31.181

@<SCITEGIC>MOL_PROPERTY
-TS
SciTegic.value.DoubleValue
32.388

@<SCITEGIC>MOL_PROPERTY
U+W
SciTegic.value.DoubleValue
10.613

@<SCITEGIC>MOL_PROPERTY
U
SciTegic.value.DoubleValue
12.707

@<SCITEGIC>MOL_PROPERTY
W
SciTegic.value.DoubleValue
-2.094

@<SCITEGIC>MOL_PROPERTY
W(PB)
SciTegic.value.DoubleValue
-4.240

@<SCITEGIC>MOL_PROPERTY
W(SA)
SciTegic.value.DoubleValue
2.146

@<SCITEGIC>MOL_PROPERTY
Valence
SciTegic.value.DoubleValue
18.320

@<SCITEGIC>MOL_PROPERTY
Coulomb
SciTegic.value.DoubleValue
-8.639

@<SCITEGIC>MOL_PROPERTY
VdW
SciTegic.value.DoubleValue
3.026

@<SCITEGIC>MOL_PROPERTY
VdW6
SciTegic.value.DoubleValue
-12.424

@<SCITEGIC>MOL_PROPERTY
VdW12
SciTegic.value.DoubleValue
15.450

@<SCITEGIC>MOL_PROPERTY
Bond
SciTegic.value.DoubleValue
0.436

@<SCITEGIC>MOL_PROPERTY
Angle
SciTegic.value.DoubleValue
4.453

@<SCITEGIC>MOL_PROPERTY
Pdih
SciTegic.value.DoubleValue
13.431

@<SCITEGIC>MOL_PROPERTY
Idih
SciTegic.value.DoubleValue
0.000

@<SCITEGIC>MOL_PROPERTY
Tether
SciTegic.value.DoubleValue
0.000

@<TRIPOS>MOLECULE
guest-s17_vm2.mol2 : vm2 ligand conformer 51
          25          25           1
SMALL
USER_CHARGES
 
@<TRIPOS>ATOM
       1    C1      20.518048   19.201249   20.738504 C.3        1 MOL1        -0.1684
       2    H1      19.576879   18.659424   20.574607 H          1 MOL1         0.0833
       3    H2      20.930428   19.374703   19.734969 H          1 MOL1         0.0833
       4    C2      21.539126   18.314073   21.494377 C.3        1 MOL1        -0.1684
       5    H3      22.076185   17.707926   20.751885 H          1 MOL1         0.0833
       6    H4      22.312960   18.941970   21.954292 H          1 MOL1         0.0833
       7    C3      20.941610   17.330235   22.535167 C.3        1 MOL1        -0.1684
       8    H5      21.772314   16.871691   23.088976 H          1 MOL1         0.0833
       9    H6      20.445833   16.506995   22.002962 H          1 MOL1         0.0833
      10    C4      19.937229   17.926369   23.551807 C.3        1 MOL1        -0.1760
      11    H7      18.966250   18.057606   23.062445 H          1 MOL1         0.0833
      12    H8      19.758422   17.174155   24.331699 H          1 MOL1         0.0833
      13    C5      20.411396   19.252998   24.196844 C.3        1 MOL1         0.1219
      14    H9      21.424828   19.488989   23.850446 H          1 MOL1         0.0790
      15    C6      19.501871   20.461776   23.878149 C.3        1 MOL1        -0.1760
      16    H10     18.581577   20.389155   24.472474 H          1 MOL1         0.0833
      17    H11     20.015431   21.367587   24.226296 H          1 MOL1         0.0833
      18    C7      19.100300   20.662148   22.391260 C.3        1 MOL1        -0.1684
      19    H12     18.631803   21.653029   22.315459 H          1 MOL1         0.0833
      20    H13     18.310008   19.956412   22.105000 H          1 MOL1         0.0833
      21    C8      20.259219   20.600526   21.364732 C.3        1 MOL1        -0.1684
      22    H14     21.180257   21.022621   21.788769 H          1 MOL1         0.0833
      23    H15     19.987007   21.271811   20.538555 H          1 MOL1         0.0833
      24    O1      20.455201   19.093626   25.609160 O.3        1 MOL1        -0.5508
      25    H16     19.541589   18.885193   25.893038 H          1 MOL1         0.3780
@<TRIPOS>BOND
    1     1     2    1
    2     1     3    1
    3     1     4    1
    4     4     5    1
    5     4     6    1
    6     4     7    1
    7     7     8    1
    8     7     9    1
    9     7    10    1
   10    10    11    1
   11    10    12    1
   12    10    13    1
   13    13    14    1
   14    13    15    1
   15    15    16    1
   16    15    17    1
   17    15    18    1
   18    18    19    1
   19    18    20    1
   20     1    21    1
   21    18    21    1
   22    21    22    1
   23    21    23    1
   24    13    24    1
   25    24    25    1
@<TRIPOS>SUBSTRUCTURE
       1 MOL1            1 RESIDUE      1      MOL     
@<SCITEGIC>MOL_PROPERTY
VM2 Rank
SciTegic.value.IntegerValue
51

@<SCITEGIC>MOL_PROPERTY
Conf_Id
SciTegic.value.IntegerValue
199

@<SCITEGIC>MOL_PROPERTY
Probability
SciTegic.value.DoubleValue
0.38

@<SCITEGIC>MOL_PROPERTY
Sum Probability
SciTegic.value.DoubleValue
94.68

@<SCITEGIC>MOL_PROPERTY
Delta G
SciTegic.value.DoubleValue
1.500

@<SCITEGIC>MOL_PROPERTY
G
SciTegic.value.DoubleValue
63.576

@<SCITEGIC>MOL_PROPERTY
E
SciTegic.value.DoubleValue
31.187

@<SCITEGIC>MOL_PROPERTY
-TS
SciTegic.value.DoubleValue
32.388

@<SCITEGIC>MOL_PROPERTY
U+W
SciTegic.value.DoubleValue
10.620

@<SCITEGIC>MOL_PROPERTY
U
SciTegic.value.DoubleValue
12.707

@<SCITEGIC>MOL_PROPERTY
W
SciTegic.value.DoubleValue
-2.087

@<SCITEGIC>MOL_PROPERTY
W(PB)
SciTegic.value.DoubleValue
-4.226

@<SCITEGIC>MOL_PROPERTY
W(SA)
SciTegic.value.DoubleValue
2.139

@<SCITEGIC>MOL_PROPERTY
Valence
SciTegic.value.DoubleValue
18.320

@<SCITEGIC>MOL_PROPERTY
Coulomb
SciTegic.value.DoubleValue
-8.639

@<SCITEGIC>MOL_PROPERTY
VdW
SciTegic.value.DoubleValue
3.026

@<SCITEGIC>MOL_PROPERTY
VdW6
SciTegic.value.DoubleValue
-12.424

@<SCITEGIC>MOL_PROPERTY
VdW12
SciTegic.value.DoubleValue
15.450

@<SCITEGIC>MOL_PROPERTY
Bond
SciTegic.value.DoubleValue
0.436

@<SCITEGIC>MOL_PROPERTY
Angle
SciTegic.value.DoubleValue
4.453

@<SCITEGIC>MOL_PROPERTY
Pdih
SciTegic.value.DoubleValue
13.431

@<SCITEGIC>MOL_PROPERTY
Idih
SciTegic.value.DoubleValue
0.000

@<SCITEGIC>MOL_PROPERTY
Tether
SciTegic.value.DoubleValue
0.000

@<TRIPOS>MOLECULE
guest-s17_vm2.mol2 : vm2 ligand conformer 52
          25          25           1
SMALL
USER_CHARGES
 
@<TRIPOS>ATOM
       1    C1      20.947071   19.394942   20.768792 C.3        1 MOL1        -0.1684
       2    H1      21.044643   19.427711   19.674994 H          1 MOL1         0.0833
       3    H2      21.868862   19.856061   21.145496 H          1 MOL1         0.0833
       4    C2      20.879611   17.898404   21.173122 C.3        1 MOL1        -0.1684
       5    H3      20.160659   17.386104   20.519336 H          1 MOL1         0.0833
       6    H4      21.855705   17.442112   20.959003 H          1 MOL1         0.0833
       7    C3      20.500533   17.594349   22.642318 C.3        1 MOL1        -0.1684
       8    H5      20.697799   16.530820   22.833951 H          1 MOL1         0.0833
       9    H6      19.417604   17.706862   22.767646 H          1 MOL1         0.0833
      10    C4      21.278672   18.442009   23.684048 C.3        1 MOL1        -0.1760
      11    H7      21.808994   17.764718   24.366778 H          1 MOL1         0.0833
      12    H8      22.073923   19.020678   23.201887 H          1 MOL1         0.0833
      13    C5      20.405157   19.396773   24.530385 C.3        1 MOL1         0.1219
      14    H9      21.081713   20.099737   25.037227 H          1 MOL1         0.0790
      15    C6      19.346078   20.226670   23.761326 C.3        1 MOL1        -0.1760
      16    H10     18.486849   19.604518   23.482724 H          1 MOL1         0.0833
      17    H11     18.945534   20.958859   24.474836 H          1 MOL1         0.0833
      18    C7      19.854754   21.006929   22.521604 C.3        1 MOL1        -0.1684
      19    H12     19.240447   21.914502   22.443259 H          1 MOL1         0.0833
      20    H13     20.881237   21.364281   22.679458 H          1 MOL1         0.0833
      21    C8      19.723706   20.258218   21.166030 C.3        1 MOL1        -0.1684
      22    H14     19.610215   21.026156   20.388493 H          1 MOL1         0.0833
      23    H15     18.799196   19.666681   21.126608 H          1 MOL1         0.0833
      24    O1      19.728418   18.624707   25.512376 O.3        1 MOL1        -0.5508
      25    H16     19.249243   17.926938   25.021136 H          1 MOL1         0.3780
@<TRIPOS>BOND
    1     1     2    1
    2     1     3    1
    3     1     4    1
    4     4     5    1
    5     4     6    1
    6     4     7    1
    7     7     8    1
    8     7     9    1
    9     7    10    1
   10    10    11    1
   11    10    12    1
   12    10    13    1
   13    13    14    1
   14    13    15    1
   15    15    16    1
   16    15    17    1
   17    15    18    1
   18    18    19    1
   19    18    20    1
   20     1    21    1
   21    18    21    1
   22    21    22    1
   23    21    23    1
   24    13    24    1
   25    24    25    1
@<TRIPOS>SUBSTRUCTURE
       1 MOL1            1 RESIDUE      1      MOL     
@<SCITEGIC>MOL_PROPERTY
VM2 Rank
SciTegic.value.IntegerValue
52

@<SCITEGIC>MOL_PROPERTY
Conf_Id
SciTegic.value.IntegerValue
988

@<SCITEGIC>MOL_PROPERTY
Probability
SciTegic.value.DoubleValue
0.29

@<SCITEGIC>MOL_PROPERTY
Sum Probability
SciTegic.value.DoubleValue
94.97

@<SCITEGIC>MOL_PROPERTY
Delta G
SciTegic.value.DoubleValue
1.650

@<SCITEGIC>MOL_PROPERTY
G
SciTegic.value.DoubleValue
63.726

@<SCITEGIC>MOL_PROPERTY
E
SciTegic.value.DoubleValue
31.413

@<SCITEGIC>MOL_PROPERTY
-TS
SciTegic.value.DoubleValue
32.313

@<SCITEGIC>MOL_PROPERTY
U+W
SciTegic.value.DoubleValue
10.846

@<SCITEGIC>MOL_PROPERTY
U
SciTegic.value.DoubleValue
12.433

@<SCITEGIC>MOL_PROPERTY
W
SciTegic.value.DoubleValue
-1.587

@<SCITEGIC>MOL_PROPERTY
W(PB)
SciTegic.value.DoubleValue
-3.713

@<SCITEGIC>MOL_PROPERTY
W(SA)
SciTegic.value.DoubleValue
2.126

@<SCITEGIC>MOL_PROPERTY
Valence
SciTegic.value.DoubleValue
19.007

@<SCITEGIC>MOL_PROPERTY
Coulomb
SciTegic.value.DoubleValue
-9.373

@<SCITEGIC>MOL_PROPERTY
VdW
SciTegic.value.DoubleValue
2.799

@<SCITEGIC>MOL_PROPERTY
VdW6
SciTegic.value.DoubleValue
-12.597

@<SCITEGIC>MOL_PROPERTY
VdW12
SciTegic.value.DoubleValue
15.396

@<SCITEGIC>MOL_PROPERTY
Bond
SciTegic.value.DoubleValue
0.425

@<SCITEGIC>MOL_PROPERTY
Angle
SciTegic.value.DoubleValue
4.784

@<SCITEGIC>MOL_PROPERTY
Pdih
SciTegic.value.DoubleValue
13.799

@<SCITEGIC>MOL_PROPERTY
Idih
SciTegic.value.DoubleValue
0.000

@<SCITEGIC>MOL_PROPERTY
Tether
SciTegic.value.DoubleValue
0.000

@<TRIPOS>MOLECULE
guest-s17_vm2.mol2 : vm2 ligand conformer 53
          25          25           1
SMALL
USER_CHARGES
 
@<TRIPOS>ATOM
       1    C1      19.891127   19.003292   20.794306 C.3        1 MOL1        -0.1684
       2    H1      18.938933   18.618892   21.181253 H          1 MOL1         0.0833
       3    H2      19.760446   19.028365   19.703767 H          1 MOL1         0.0833
       4    C2      21.043546   18.007544   21.089668 C.3        1 MOL1        -0.1684
       5    H3      20.704335   17.000884   20.809677 H          1 MOL1         0.0833
       6    H4      21.887921   18.233724   20.424349 H          1 MOL1         0.0833
       7    C3      21.569742   17.966446   22.544579 C.3        1 MOL1        -0.1684
       8    H5      22.238102   18.818093   22.717100 H          1 MOL1         0.0833
       9    H6      22.211071   17.080817   22.650152 H          1 MOL1         0.0833
      10    C4      20.454508   17.905216   23.620665 C.3        1 MOL1        -0.1760
      11    H7      19.474581   17.739937   23.159347 H          1 MOL1         0.0833
      12    H8      20.624606   17.019492   24.246568 H          1 MOL1         0.0833
      13    C5      20.399226   19.133955   24.557372 C.3        1 MOL1         0.1219
      14    H9      21.251379   19.063489   25.248529 H          1 MOL1         0.0790
      15    C6      20.475892   20.526411   23.879383 C.3        1 MOL1        -0.1760
      16    H10     20.253605   21.272663   24.653999 H          1 MOL1         0.0833
      17    H11     21.508806   20.741905   23.580781 H          1 MOL1         0.0833
      18    C7      19.521034   20.779311   22.682169 C.3        1 MOL1        -0.1684
      19    H12     19.286204   21.852616   22.686161 H          1 MOL1         0.0833
      20    H13     18.558226   20.272992   22.828632 H          1 MOL1         0.0833
      21    C8      20.113153   20.456158   21.282620 C.3        1 MOL1        -0.1684
      22    H14     21.175758   20.728341   21.228094 H          1 MOL1         0.0833
      23    H15     19.607324   21.114939   20.563372 H          1 MOL1         0.0833
      24    O1      19.195772   19.064666   25.309238 O.3        1 MOL1        -0.5508
      25    H16     18.471888   19.226364   24.671281 H          1 MOL1         0.3780
@<TRIPOS>BOND
    1     1     2    1
    2     1     3    1
    3     1     4    1
    4     4     5    1
    5     4     6    1
    6     4     7    1
    7     7     8    1
    8     7     9    1
    9     7    10    1
   10    10    11    1
   11    10    12    1
   12    10    13    1
   13    13    14    1
   14    13    15    1
   15    15    16    1
   16    15    17    1
   17    15    18    1
   18    18    19    1
   19    18    20    1
   20     1    21    1
   21    18    21    1
   22    21    22    1
   23    21    23    1
   24    13    24    1
   25    24    25    1
@<TRIPOS>SUBSTRUCTURE
       1 MOL1            1 RESIDUE      1      MOL     
@<SCITEGIC>MOL_PROPERTY
VM2 Rank
SciTegic.value.IntegerValue
53

@<SCITEGIC>MOL_PROPERTY
Conf_Id
SciTegic.value.IntegerValue
1550

@<SCITEGIC>MOL_PROPERTY
Probability
SciTegic.value.DoubleValue
0.26

@<SCITEGIC>MOL_PROPERTY
Sum Probability
SciTegic.value.DoubleValue
95.23

@<SCITEGIC>MOL_PROPERTY
Delta G
SciTegic.value.DoubleValue
1.717

@<SCITEGIC>MOL_PROPERTY
G
SciTegic.value.DoubleValue
63.792

@<SCITEGIC>MOL_PROPERTY
E
SciTegic.value.DoubleValue
31.518

@<SCITEGIC>MOL_PROPERTY
-TS
SciTegic.value.DoubleValue
32.274

@<SCITEGIC>MOL_PROPERTY
U+W
SciTegic.value.DoubleValue
10.951

@<SCITEGIC>MOL_PROPERTY
U
SciTegic.value.DoubleValue
12.526

@<SCITEGIC>MOL_PROPERTY
W
SciTegic.value.DoubleValue
-1.576

@<SCITEGIC>MOL_PROPERTY
W(PB)
SciTegic.value.DoubleValue
-3.699

@<SCITEGIC>MOL_PROPERTY
W(SA)
SciTegic.value.DoubleValue
2.123

@<SCITEGIC>MOL_PROPERTY
Valence
SciTegic.value.DoubleValue
19.016

@<SCITEGIC>MOL_PROPERTY
Coulomb
SciTegic.value.DoubleValue
-9.226

@<SCITEGIC>MOL_PROPERTY
VdW
SciTegic.value.DoubleValue
2.737

@<SCITEGIC>MOL_PROPERTY
VdW6
SciTegic.value.DoubleValue
-12.612

@<SCITEGIC>MOL_PROPERTY
VdW12
SciTegic.value.DoubleValue
15.349

@<SCITEGIC>MOL_PROPERTY
Bond
SciTegic.value.DoubleValue
0.421

@<SCITEGIC>MOL_PROPERTY
Angle
SciTegic.value.DoubleValue
4.884

@<SCITEGIC>MOL_PROPERTY
Pdih
SciTegic.value.DoubleValue
13.711

@<SCITEGIC>MOL_PROPERTY
Idih
SciTegic.value.DoubleValue
0.000

@<SCITEGIC>MOL_PROPERTY
Tether
SciTegic.value.DoubleValue
0.000

@<TRIPOS>MOLECULE
guest-s17_vm2.mol2 : vm2 ligand conformer 54
          25          25           1
SMALL
USER_CHARGES
 
@<TRIPOS>ATOM
       1    C1      19.851448   19.052459   20.798183 C.3        1 MOL1        -0.1684
       2    H1      18.908756   18.653865   21.193933 H          1 MOL1         0.0833
       3    H2      19.768473   18.937673   19.708724 H          1 MOL1         0.0833
       4    C2      21.038312   18.182741   21.281416 C.3        1 MOL1        -0.1684
       5    H3      21.140010   17.355942   20.565012 H          1 MOL1         0.0833
       6    H4      21.982419   18.740180   21.217329 H          1 MOL1         0.0833
       7    C3      20.857838   17.541958   22.685196 C.3        1 MOL1        -0.1684
       8    H5      21.449477   16.616166   22.688781 H          1 MOL1         0.0833
       9    H6      19.819705   17.221275   22.840929 H          1 MOL1         0.0833
      10    C4      21.364401   18.400541   23.874843 C.3        1 MOL1        -0.1760
      11    H7      21.739909   17.718596   24.649619 H          1 MOL1         0.0833
      12    H8      22.245598   18.976074   23.567003 H          1 MOL1         0.0833
      13    C5      20.331948   19.335272   24.556598 C.3        1 MOL1         0.1219
      14    H9      20.890752   19.990049   25.240581 H          1 MOL1         0.0790
      15    C6      19.496169   20.240049   23.622188 C.3        1 MOL1        -0.1760
      16    H10     18.682288   19.662914   23.169528 H          1 MOL1         0.0833
      17    H11     18.995723   20.989967   24.248584 H          1 MOL1         0.0833
      18    C7      20.320785   20.979616   22.536598 C.3        1 MOL1        -0.1684
      19    H12     20.150147   22.060000   22.638764 H          1 MOL1         0.0833
      20    H13     21.396707   20.849430   22.701560 H          1 MOL1         0.0833
      21    C8      19.966318   20.572573   21.086078 C.3        1 MOL1        -0.1684
      22    H14     20.718816   21.005847   20.413178 H          1 MOL1         0.0833
      23    H15     19.013142   21.044507   20.811200 H          1 MOL1         0.0833
      24    O1      19.436783   18.537791   25.318901 O.3        1 MOL1        -0.5508
      25    H16     19.033760   17.909131   24.686840 H          1 MOL1         0.3780
@<TRIPOS>BOND
    1     1     2    1
    2     1     3    1
    3     1     4    1
    4     4     5    1
    5     4     6    1
    6     4     7    1
    7     7     8    1
    8     7     9    1
    9     7    10    1
   10    10    11    1
   11    10    12    1
   12    10    13    1
   13    13    14    1
   14    13    15    1
   15    15    16    1
   16    15    17    1
   17    15    18    1
   18    18    19    1
   19    18    20    1
   20     1    21    1
   21    18    21    1
   22    21    22    1
   23    21    23    1
   24    13    24    1
   25    24    25    1
@<TRIPOS>SUBSTRUCTURE
       1 MOL1            1 RESIDUE      1      MOL     
@<SCITEGIC>MOL_PROPERTY
VM2 Rank
SciTegic.value.IntegerValue
54

@<SCITEGIC>MOL_PROPERTY
Conf_Id
SciTegic.value.IntegerValue
638

@<SCITEGIC>MOL_PROPERTY
Probability
SciTegic.value.DoubleValue
0.26

@<SCITEGIC>MOL_PROPERTY
Sum Probability
SciTegic.value.DoubleValue
95.49

@<SCITEGIC>MOL_PROPERTY
Delta G
SciTegic.value.DoubleValue
1.725

@<SCITEGIC>MOL_PROPERTY
G
SciTegic.value.DoubleValue
63.800

@<SCITEGIC>MOL_PROPERTY
E
SciTegic.value.DoubleValue
31.526

@<SCITEGIC>MOL_PROPERTY
-TS
SciTegic.value.DoubleValue
32.274

@<SCITEGIC>MOL_PROPERTY
U+W
SciTegic.value.DoubleValue
10.958

@<SCITEGIC>MOL_PROPERTY
U
SciTegic.value.DoubleValue
12.527

@<SCITEGIC>MOL_PROPERTY
W
SciTegic.value.DoubleValue
-1.568

@<SCITEGIC>MOL_PROPERTY
W(PB)
SciTegic.value.DoubleValue
-3.703

@<SCITEGIC>MOL_PROPERTY
W(SA)
SciTegic.value.DoubleValue
2.135

@<SCITEGIC>MOL_PROPERTY
Valence
SciTegic.value.DoubleValue
19.016

@<SCITEGIC>MOL_PROPERTY
Coulomb
SciTegic.value.DoubleValue
-9.226

@<SCITEGIC>MOL_PROPERTY
VdW
SciTegic.value.DoubleValue
2.737

@<SCITEGIC>MOL_PROPERTY
VdW6
SciTegic.value.DoubleValue
-12.612

@<SCITEGIC>MOL_PROPERTY
VdW12
SciTegic.value.DoubleValue
15.349

@<SCITEGIC>MOL_PROPERTY
Bond
SciTegic.value.DoubleValue
0.421

@<SCITEGIC>MOL_PROPERTY
Angle
SciTegic.value.DoubleValue
4.883

@<SCITEGIC>MOL_PROPERTY
Pdih
SciTegic.value.DoubleValue
13.712

@<SCITEGIC>MOL_PROPERTY
Idih
SciTegic.value.DoubleValue
0.000

@<SCITEGIC>MOL_PROPERTY
Tether
SciTegic.value.DoubleValue
0.000

@<TRIPOS>MOLECULE
guest-s17_vm2.mol2 : vm2 ligand conformer 55
          25          25           1
SMALL
USER_CHARGES
 
@<TRIPOS>ATOM
       1    C1      20.924407   19.541810   20.780410 C.3        1 MOL1        -0.1684
       2    H1      21.034222   19.593395   19.688501 H          1 MOL1         0.0833
       3    H2      21.895928   19.865873   21.174571 H          1 MOL1         0.0833
       4    C2      20.663976   18.064190   21.165747 C.3        1 MOL1        -0.1684
       5    H3      19.592838   17.828631   21.107781 H          1 MOL1         0.0833
       6    H4      21.139480   17.445156   20.392530 H          1 MOL1         0.0833
       7    C3      21.264255   17.620512   22.528882 C.3        1 MOL1        -0.1684
       8    H5      22.239945   18.093070   22.704970 H          1 MOL1         0.0833
       9    H6      21.473210   16.544853   22.448272 H          1 MOL1         0.0833
      10    C4      20.332899   17.805841   23.754726 C.3        1 MOL1        -0.1760
      11    H7      19.290092   17.639371   23.458403 H          1 MOL1         0.0833
      12    H8      20.556160   17.001231   24.467742 H          1 MOL1         0.0833
      13    C5      20.482064   19.137559   24.533255 C.3        1 MOL1         0.1219
      14    H9      21.449265   19.116530   25.055608 H          1 MOL1         0.0790
      15    C6      20.437724   20.434747   23.692878 C.3        1 MOL1        -0.1760
      16    H10     20.322445   21.285033   24.378305 H          1 MOL1         0.0833
      17    H11     21.416817   20.590747   23.227258 H          1 MOL1         0.0833
      18    C7      19.305041   20.488984   22.633013 C.3        1 MOL1        -0.1684
      19    H12     18.689143   21.379301   22.819382 H          1 MOL1         0.0833
      20    H13     18.617248   19.642830   22.742853 H          1 MOL1         0.0833
      21    C8      19.811705   20.549845   21.172098 C.3        1 MOL1        -0.1684
      22    H14     20.182260   21.563915   20.969217 H          1 MOL1         0.0833
      23    H15     18.951798   20.406854   20.503596 H          1 MOL1         0.0833
      24    O1      19.441930   19.199513   25.498991 O.3        1 MOL1        -0.5508
      25    H16     18.617624   19.356238   24.995240 H          1 MOL1         0.3780
@<TRIPOS>BOND
    1     1     2    1
    2     1     3    1
    3     1     4    1
    4     4     5    1
    5     4     6    1
    6     4     7    1
    7     7     8    1
    8     7     9    1
    9     7    10    1
   10    10    11    1
   11    10    12    1
   12    10    13    1
   13    13    14    1
   14    13    15    1
   15    15    16    1
   16    15    17    1
   17    15    18    1
   18    18    19    1
   19    18    20    1
   20     1    21    1
   21    18    21    1
   22    21    22    1
   23    21    23    1
   24    13    24    1
   25    24    25    1
@<TRIPOS>SUBSTRUCTURE
       1 MOL1            1 RESIDUE      1      MOL     
@<SCITEGIC>MOL_PROPERTY
VM2 Rank
SciTegic.value.IntegerValue
55

@<SCITEGIC>MOL_PROPERTY
Conf_Id
SciTegic.value.IntegerValue
2003

@<SCITEGIC>MOL_PROPERTY
Probability
SciTegic.value.DoubleValue
0.26

@<SCITEGIC>MOL_PROPERTY
Sum Probability
SciTegic.value.DoubleValue
95.75

@<SCITEGIC>MOL_PROPERTY
Delta G
SciTegic.value.DoubleValue
1.726

@<SCITEGIC>MOL_PROPERTY
G
SciTegic.value.DoubleValue
63.802

@<SCITEGIC>MOL_PROPERTY
E
SciTegic.value.DoubleValue
31.489

@<SCITEGIC>MOL_PROPERTY
-TS
SciTegic.value.DoubleValue
32.313

@<SCITEGIC>MOL_PROPERTY
U+W
SciTegic.value.DoubleValue
10.921

@<SCITEGIC>MOL_PROPERTY
U
SciTegic.value.DoubleValue
12.433

@<SCITEGIC>MOL_PROPERTY
W
SciTegic.value.DoubleValue
-1.511

@<SCITEGIC>MOL_PROPERTY
W(PB)
SciTegic.value.DoubleValue
-3.669

@<SCITEGIC>MOL_PROPERTY
W(SA)
SciTegic.value.DoubleValue
2.157

@<SCITEGIC>MOL_PROPERTY
Valence
SciTegic.value.DoubleValue
19.007

@<SCITEGIC>MOL_PROPERTY
Coulomb
SciTegic.value.DoubleValue
-9.373

@<SCITEGIC>MOL_PROPERTY
VdW
SciTegic.value.DoubleValue
2.799

@<SCITEGIC>MOL_PROPERTY
VdW6
SciTegic.value.DoubleValue
-12.597

@<SCITEGIC>MOL_PROPERTY
VdW12
SciTegic.value.DoubleValue
15.396

@<SCITEGIC>MOL_PROPERTY
Bond
SciTegic.value.DoubleValue
0.425

@<SCITEGIC>MOL_PROPERTY
Angle
SciTegic.value.DoubleValue
4.785

@<SCITEGIC>MOL_PROPERTY
Pdih
SciTegic.value.DoubleValue
13.798

@<SCITEGIC>MOL_PROPERTY
Idih
SciTegic.value.DoubleValue
0.000

@<SCITEGIC>MOL_PROPERTY
Tether
SciTegic.value.DoubleValue
0.000

@<TRIPOS>MOLECULE
guest-s17_vm2.mol2 : vm2 ligand conformer 56
          25          25           1
SMALL
USER_CHARGES
 
@<TRIPOS>ATOM
       1    C1      19.660695   18.881503   21.120274 C.3        1 MOL1        -0.1684
       2    H1      18.877026   18.341718   21.660821 H          1 MOL1         0.0833
       3    H2      19.388288   18.742839   20.064746 H          1 MOL1         0.0833
       4    C2      21.039364   18.208745   21.338551 C.3        1 MOL1        -0.1684
       5    H3      21.138578   17.423627   20.576351 H          1 MOL1         0.0833
       6    H4      21.861419   18.905665   21.132336 H          1 MOL1         0.0833
       7    C3      21.226985   17.516524   22.713550 C.3        1 MOL1        -0.1684
       8    H5      22.124441   16.887886   22.634762 H          1 MOL1         0.0833
       9    H6      20.404480   16.810667   22.891107 H          1 MOL1         0.0833
      10    C4      21.426259   18.434002   23.955235 C.3        1 MOL1        -0.1760
      11    H7      21.756103   17.784477   24.776451 H          1 MOL1         0.0833
      12    H8      22.267229   19.117957   23.787712 H          1 MOL1         0.0833
      13    C5      20.195704   19.218513   24.486129 C.3        1 MOL1         0.1219
      14    H9      20.319887   19.296422   25.575935 H          1 MOL1         0.0790
      15    C6      20.055256   20.674247   23.977664 C.3        1 MOL1        -0.1760
      16    H10     19.024054   21.015791   24.138833 H          1 MOL1         0.0833
      17    H11     20.671741   21.301785   24.634388 H          1 MOL1         0.0833
      18    C7      20.480571   20.990461   22.521024 C.3        1 MOL1        -0.1684
      19    H12     21.533498   20.734583   22.359377 H          1 MOL1         0.0833
      20    H13     20.448078   22.083372   22.414574 H          1 MOL1         0.0833
      21    C8      19.588450   20.406899   21.396537 C.3        1 MOL1        -0.1684
      22    H14     19.878775   20.916839   20.467589 H          1 MOL1         0.0833
      23    H15     18.542557   20.694115   21.570599 H          1 MOL1         0.0833
      24    O1      18.990716   18.512105   24.251035 O.3        1 MOL1        -0.5508
      25    H16     18.931004   18.468903   23.278377 H          1 MOL1         0.3780
@<TRIPOS>BOND
    1     1     2    1
    2     1     3    1
    3     1     4    1
    4     4     5    1
    5     4     6    1
    6     4     7    1
    7     7     8    1
    8     7     9    1
    9     7    10    1
   10    10    11    1
   11    10    12    1
   12    10    13    1
   13    13    14    1
   14    13    15    1
   15    15    16    1
   16    15    17    1
   17    15    18    1
   18    18    19    1
   19    18    20    1
   20     1    21    1
   21    18    21    1
   22    21    22    1
   23    21    23    1
   24    13    24    1
   25    24    25    1
@<TRIPOS>SUBSTRUCTURE
       1 MOL1            1 RESIDUE      1      MOL     
@<SCITEGIC>MOL_PROPERTY
VM2 Rank
SciTegic.value.IntegerValue
56

@<SCITEGIC>MOL_PROPERTY
Conf_Id
SciTegic.value.IntegerValue
350

@<SCITEGIC>MOL_PROPERTY
Probability
SciTegic.value.DoubleValue
0.19

@<SCITEGIC>MOL_PROPERTY
Sum Probability
SciTegic.value.DoubleValue
95.95

@<SCITEGIC>MOL_PROPERTY
Delta G
SciTegic.value.DoubleValue
1.897

@<SCITEGIC>MOL_PROPERTY
G
SciTegic.value.DoubleValue
63.972

@<SCITEGIC>MOL_PROPERTY
E
SciTegic.value.DoubleValue
31.774

@<SCITEGIC>MOL_PROPERTY
-TS
SciTegic.value.DoubleValue
32.198

@<SCITEGIC>MOL_PROPERTY
U+W
SciTegic.value.DoubleValue
11.207

@<SCITEGIC>MOL_PROPERTY
U
SciTegic.value.DoubleValue
12.093

@<SCITEGIC>MOL_PROPERTY
W
SciTegic.value.DoubleValue
-0.886

@<SCITEGIC>MOL_PROPERTY
W(PB)
SciTegic.value.DoubleValue
-2.996

@<SCITEGIC>MOL_PROPERTY
W(SA)
SciTegic.value.DoubleValue
2.110

@<SCITEGIC>MOL_PROPERTY
Valence
SciTegic.value.DoubleValue
19.645

@<SCITEGIC>MOL_PROPERTY
Coulomb
SciTegic.value.DoubleValue
-9.930

@<SCITEGIC>MOL_PROPERTY
VdW
SciTegic.value.DoubleValue
2.377

@<SCITEGIC>MOL_PROPERTY
VdW6
SciTegic.value.DoubleValue
-13.909

@<SCITEGIC>MOL_PROPERTY
VdW12
SciTegic.value.DoubleValue
16.286

@<SCITEGIC>MOL_PROPERTY
Bond
SciTegic.value.DoubleValue
0.498

@<SCITEGIC>MOL_PROPERTY
Angle
SciTegic.value.DoubleValue
8.148

@<SCITEGIC>MOL_PROPERTY
Pdih
SciTegic.value.DoubleValue
11.000

@<SCITEGIC>MOL_PROPERTY
Idih
SciTegic.value.DoubleValue
0.000

@<SCITEGIC>MOL_PROPERTY
Tether
SciTegic.value.DoubleValue
0.000

@<TRIPOS>MOLECULE
guest-s17_vm2.mol2 : vm2 ligand conformer 57
          25          25           1
SMALL
USER_CHARGES
 
@<TRIPOS>ATOM
       1    C1      20.869059   19.438327   20.600429 C.3        1 MOL1        -0.1684
       2    H1      21.668373   20.126185   20.292660 H          1 MOL1         0.0833
       3    H2      20.554284   18.920302   19.684228 H          1 MOL1         0.0833
       4    C2      21.474571   18.394815   21.571262 C.3        1 MOL1        -0.1684
       5    H3      22.130170   17.732266   20.989808 H          1 MOL1         0.0833
       6    H4      22.145068   18.895904   22.279004 H          1 MOL1         0.0833
       7    C3      20.426982   17.526953   22.313673 C.3        1 MOL1        -0.1684
       8    H5      20.646616   16.467853   22.121959 H          1 MOL1         0.0833
       9    H6      19.423273   17.683368   21.901678 H          1 MOL1         0.0833
      10    C4      20.401174   17.741895   23.848173 C.3        1 MOL1        -0.1760
      11    H7      19.515313   17.235837   24.254270 H          1 MOL1         0.0833
      12    H8      21.267908   17.229182   24.285279 H          1 MOL1         0.0833
      13    C5      20.420166   19.207509   24.349961 C.3        1 MOL1         0.1219
      14    H9      21.413815   19.638694   24.169056 H          1 MOL1         0.0790
      15    C6      19.355437   20.134160   23.713586 C.3        1 MOL1        -0.1760
      16    H10     18.453592   19.561885   23.461142 H          1 MOL1         0.0833
      17    H11     19.035493   20.859001   24.474004 H          1 MOL1         0.0833
      18    C7      19.849708   20.957811   22.490862 C.3        1 MOL1        -0.1684
      19    H12     20.889696   21.284516   22.625431 H          1 MOL1         0.0833
      20    H13     19.255059   21.881429   22.467184 H          1 MOL1         0.0833
      21    C8      19.663657   20.268577   21.116399 C.3        1 MOL1        -0.1684
      22    H14     19.472171   21.051496   20.369782 H          1 MOL1         0.0833
      23    H15     18.750267   19.660293   21.122768 H          1 MOL1         0.0833
      24    O1      20.203248   19.172953   25.755654 O.3        1 MOL1        -0.5508
      25    H16     20.296119   20.093650   26.078370 H          1 MOL1         0.3780
@<TRIPOS>BOND
    1     1     2    1
    2     1     3    1
    3     1     4    1
    4     4     5    1
    5     4     6    1
    6     4     7    1
    7     7     8    1
    8     7     9    1
    9     7    10    1
   10    10    11    1
   11    10    12    1
   12    10    13    1
   13    13    14    1
   14    13    15    1
   15    15    16    1
   16    15    17    1
   17    15    18    1
   18    18    19    1
   19    18    20    1
   20     1    21    1
   21    18    21    1
   22    21    22    1
   23    21    23    1
   24    13    24    1
   25    24    25    1
@<TRIPOS>SUBSTRUCTURE
       1 MOL1            1 RESIDUE      1      MOL     
@<SCITEGIC>MOL_PROPERTY
VM2 Rank
SciTegic.value.IntegerValue
57

@<SCITEGIC>MOL_PROPERTY
Conf_Id
SciTegic.value.IntegerValue
1202

@<SCITEGIC>MOL_PROPERTY
Probability
SciTegic.value.DoubleValue
0.19

@<SCITEGIC>MOL_PROPERTY
Sum Probability
SciTegic.value.DoubleValue
96.14

@<SCITEGIC>MOL_PROPERTY
Delta G
SciTegic.value.DoubleValue
1.907

@<SCITEGIC>MOL_PROPERTY
G
SciTegic.value.DoubleValue
63.982

@<SCITEGIC>MOL_PROPERTY
E
SciTegic.value.DoubleValue
31.698

@<SCITEGIC>MOL_PROPERTY
-TS
SciTegic.value.DoubleValue
32.284

@<SCITEGIC>MOL_PROPERTY
U+W
SciTegic.value.DoubleValue
11.130

@<SCITEGIC>MOL_PROPERTY
U
SciTegic.value.DoubleValue
13.296

@<SCITEGIC>MOL_PROPERTY
W
SciTegic.value.DoubleValue
-2.166

@<SCITEGIC>MOL_PROPERTY
W(PB)
SciTegic.value.DoubleValue
-4.311

@<SCITEGIC>MOL_PROPERTY
W(SA)
SciTegic.value.DoubleValue
2.146

@<SCITEGIC>MOL_PROPERTY
Valence
SciTegic.value.DoubleValue
18.607

@<SCITEGIC>MOL_PROPERTY
Coulomb
SciTegic.value.DoubleValue
-8.339

@<SCITEGIC>MOL_PROPERTY
VdW
SciTegic.value.DoubleValue
3.028

@<SCITEGIC>MOL_PROPERTY
VdW6
SciTegic.value.DoubleValue
-12.271

@<SCITEGIC>MOL_PROPERTY
VdW12
SciTegic.value.DoubleValue
15.299

@<SCITEGIC>MOL_PROPERTY
Bond
SciTegic.value.DoubleValue
0.424

@<SCITEGIC>MOL_PROPERTY
Angle
SciTegic.value.DoubleValue
4.487

@<SCITEGIC>MOL_PROPERTY
Pdih
SciTegic.value.DoubleValue
13.696

@<SCITEGIC>MOL_PROPERTY
Idih
SciTegic.value.DoubleValue
0.000

@<SCITEGIC>MOL_PROPERTY
Tether
SciTegic.value.DoubleValue
0.000

@<TRIPOS>MOLECULE
guest-s17_vm2.mol2 : vm2 ligand conformer 58
          25          25           1
SMALL
USER_CHARGES
 
@<TRIPOS>ATOM
       1    C1      20.865373   19.436305   20.597422 C.3        1 MOL1        -0.1684
       2    H1      21.663787   20.122940   20.284622 H          1 MOL1         0.0833
       3    H2      20.547443   18.914823   19.684280 H          1 MOL1         0.0833
       4    C2      21.473516   18.397189   21.571030 C.3        1 MOL1        -0.1684
       5    H3      22.131693   17.734938   20.992147 H          1 MOL1         0.0833
       6    H4      22.141397   18.902761   22.278077 H          1 MOL1         0.0833
       7    C3      20.426949   17.529039   22.314366 C.3        1 MOL1        -0.1684
       8    H5      20.644521   16.470084   22.119369 H          1 MOL1         0.0833
       9    H6      19.422164   17.687566   21.905792 H          1 MOL1         0.0833
      10    C4      20.405638   17.741124   23.848986 C.3        1 MOL1        -0.1760
      11    H7      19.520798   17.232152   24.254226 H          1 MOL1         0.0833
      12    H8      21.275010   17.226763   24.278806 H          1 MOL1         0.0833
      13    C5      20.421553   19.206878   24.352252 C.3        1 MOL1         0.1219
      14    H9      21.414322   19.642277   24.176379 H          1 MOL1         0.0790
      15    C6      19.359573   20.135255   23.714235 C.3        1 MOL1        -0.1760
      16    H10     18.453313   19.567717   23.467811 H          1 MOL1         0.0833
      17    H11     19.050155   20.861379   24.478262 H          1 MOL1         0.0833
      18    C7      19.852749   20.957129   22.489548 C.3        1 MOL1        -0.1684
      19    H12     20.893637   21.281554   22.622436 H          1 MOL1         0.0833
      20    H13     19.260176   21.882070   22.467525 H          1 MOL1         0.0833
      21    C8      19.662259   20.268556   21.115370 C.3        1 MOL1        -0.1684
      22    H14     19.470327   21.051689   20.369102 H          1 MOL1         0.0833
      23    H15     18.747927   19.661724   21.124194 H          1 MOL1         0.0833
      24    O1      20.196388   19.171525   25.756791 O.3        1 MOL1        -0.5508
      25    H16     20.908380   18.620262   26.143556 H          1 MOL1         0.3780
@<TRIPOS>BOND
    1     1     2    1
    2     1     3    1
    3     1     4    1
    4     4     5    1
    5     4     6    1
    6     4     7    1
    7     7     8    1
    8     7     9    1
    9     7    10    1
   10    10    11    1
   11    10    12    1
   12    10    13    1
   13    13    14    1
   14    13    15    1
   15    15    16    1
   16    15    17    1
   17    15    18    1
   18    18    19    1
   19    18    20    1
   20     1    21    1
   21    18    21    1
   22    21    22    1
   23    21    23    1
   24    13    24    1
   25    24    25    1
@<TRIPOS>SUBSTRUCTURE
       1 MOL1            1 RESIDUE      1      MOL     
@<SCITEGIC>MOL_PROPERTY
VM2 Rank
SciTegic.value.IntegerValue
58

@<SCITEGIC>MOL_PROPERTY
Conf_Id
SciTegic.value.IntegerValue
1519

@<SCITEGIC>MOL_PROPERTY
Probability
SciTegic.value.DoubleValue
0.19

@<SCITEGIC>MOL_PROPERTY
Sum Probability
SciTegic.value.DoubleValue
96.33

@<SCITEGIC>MOL_PROPERTY
Delta G
SciTegic.value.DoubleValue
1.921

@<SCITEGIC>MOL_PROPERTY
G
SciTegic.value.DoubleValue
63.997

@<SCITEGIC>MOL_PROPERTY
E
SciTegic.value.DoubleValue
31.721

@<SCITEGIC>MOL_PROPERTY
-TS
SciTegic.value.DoubleValue
32.276

@<SCITEGIC>MOL_PROPERTY
U+W
SciTegic.value.DoubleValue
11.153

@<SCITEGIC>MOL_PROPERTY
U
SciTegic.value.DoubleValue
13.313

@<SCITEGIC>MOL_PROPERTY
W
SciTegic.value.DoubleValue
-2.160

@<SCITEGIC>MOL_PROPERTY
W(PB)
SciTegic.value.DoubleValue
-4.301

@<SCITEGIC>MOL_PROPERTY
W(SA)
SciTegic.value.DoubleValue
2.141

@<SCITEGIC>MOL_PROPERTY
Valence
SciTegic.value.DoubleValue
18.589

@<SCITEGIC>MOL_PROPERTY
Coulomb
SciTegic.value.DoubleValue
-8.331

@<SCITEGIC>MOL_PROPERTY
VdW
SciTegic.value.DoubleValue
3.055

@<SCITEGIC>MOL_PROPERTY
VdW6
SciTegic.value.DoubleValue
-12.273

@<SCITEGIC>MOL_PROPERTY
VdW12
SciTegic.value.DoubleValue
15.328

@<SCITEGIC>MOL_PROPERTY
Bond
SciTegic.value.DoubleValue
0.425

@<SCITEGIC>MOL_PROPERTY
Angle
SciTegic.value.DoubleValue
4.505

@<SCITEGIC>MOL_PROPERTY
Pdih
SciTegic.value.DoubleValue
13.659

@<SCITEGIC>MOL_PROPERTY
Idih
SciTegic.value.DoubleValue
0.000

@<SCITEGIC>MOL_PROPERTY
Tether
SciTegic.value.DoubleValue
0.000

@<TRIPOS>MOLECULE
guest-s17_vm2.mol2 : vm2 ligand conformer 59
          25          25           1
SMALL
USER_CHARGES
 
@<TRIPOS>ATOM
       1    C1      20.862470   19.421119   20.595225 C.3        1 MOL1        -0.1684
       2    H1      20.269519   19.563212   19.681404 H          1 MOL1         0.0833
       3    H2      21.912977   19.488444   20.281091 H          1 MOL1         0.0833
       4    C2      20.587916   17.988325   21.124488 C.3        1 MOL1        -0.1684
       5    H3      19.510413   17.780514   21.135845 H          1 MOL1         0.0833
       6    H4      20.999182   17.289429   20.383234 H          1 MOL1         0.0833
       7    C3      21.207555   17.641235   22.500843 C.3        1 MOL1        -0.1684
       8    H5      22.177567   18.140240   22.629020 H          1 MOL1         0.0833
       9    H6      21.432988   16.566000   22.486932 H          1 MOL1         0.0833
      10    C4      20.280868   17.891398   23.724453 C.3        1 MOL1        -0.1760
      11    H7      19.236436   17.659225   23.480756 H          1 MOL1         0.0833
      12    H8      20.569708   17.162531   24.493907 H          1 MOL1         0.0833
      13    C5      20.388369   19.302814   24.351427 C.3        1 MOL1         0.1219
      14    H9      21.401513   19.686614   24.171616 H          1 MOL1         0.0790
      15    C6      19.349293   20.333278   23.841108 C.3        1 MOL1        -0.1760
      16    H10     18.361784   20.079352   24.249226 H          1 MOL1         0.0833
      17    H11     19.609332   21.312774   24.263112 H          1 MOL1         0.0833
      18    C7      19.214467   20.487601   22.305367 C.3        1 MOL1        -0.1684
      19    H12     18.627312   21.393910   22.103877 H          1 MOL1         0.0833
      20    H13     18.608489   19.667180   21.903677 H          1 MOL1         0.0833
      21    C8      20.568772   20.596082   21.559964 C.3        1 MOL1        -0.1684
      22    H14     21.400119   20.709104   22.265421 H          1 MOL1         0.0833
      23    H15     20.573551   21.525211   20.973811 H          1 MOL1         0.0833
      24    O1      20.204290   19.181149   25.757125 O.3        1 MOL1        -0.5508
      25    H16     20.326202   20.076343   26.136831 H          1 MOL1         0.3780
@<TRIPOS>BOND
    1     1     2    1
    2     1     3    1
    3     1     4    1
    4     4     5    1
    5     4     6    1
    6     4     7    1
    7     7     8    1
    8     7     9    1
    9     7    10    1
   10    10    11    1
   11    10    12    1
   12    10    13    1
   13    13    14    1
   14    13    15    1
   15    15    16    1
   16    15    17    1
   17    15    18    1
   18    18    19    1
   19    18    20    1
   20     1    21    1
   21    18    21    1
   22    21    22    1
   23    21    23    1
   24    13    24    1
   25    24    25    1
@<TRIPOS>SUBSTRUCTURE
       1 MOL1            1 RESIDUE      1      MOL     
@<SCITEGIC>MOL_PROPERTY
VM2 Rank
SciTegic.value.IntegerValue
59

@<SCITEGIC>MOL_PROPERTY
Conf_Id
SciTegic.value.IntegerValue
252

@<SCITEGIC>MOL_PROPERTY
Probability
SciTegic.value.DoubleValue
0.18

@<SCITEGIC>MOL_PROPERTY
Sum Probability
SciTegic.value.DoubleValue
96.51

@<SCITEGIC>MOL_PROPERTY
Delta G
SciTegic.value.DoubleValue
1.940

@<SCITEGIC>MOL_PROPERTY
G
SciTegic.value.DoubleValue
64.015

@<SCITEGIC>MOL_PROPERTY
E
SciTegic.value.DoubleValue
31.739

@<SCITEGIC>MOL_PROPERTY
-TS
SciTegic.value.DoubleValue
32.276

@<SCITEGIC>MOL_PROPERTY
U+W
SciTegic.value.DoubleValue
11.172

@<SCITEGIC>MOL_PROPERTY
U
SciTegic.value.DoubleValue
13.313

@<SCITEGIC>MOL_PROPERTY
W
SciTegic.value.DoubleValue
-2.141

@<SCITEGIC>MOL_PROPERTY
W(PB)
SciTegic.value.DoubleValue
-4.307

@<SCITEGIC>MOL_PROPERTY
W(SA)
SciTegic.value.DoubleValue
2.165

@<SCITEGIC>MOL_PROPERTY
Valence
SciTegic.value.DoubleValue
18.589

@<SCITEGIC>MOL_PROPERTY
Coulomb
SciTegic.value.DoubleValue
-8.331

@<SCITEGIC>MOL_PROPERTY
VdW
SciTegic.value.DoubleValue
3.055

@<SCITEGIC>MOL_PROPERTY
VdW6
SciTegic.value.DoubleValue
-12.273

@<SCITEGIC>MOL_PROPERTY
VdW12
SciTegic.value.DoubleValue
15.328

@<SCITEGIC>MOL_PROPERTY
Bond
SciTegic.value.DoubleValue
0.425

@<SCITEGIC>MOL_PROPERTY
Angle
SciTegic.value.DoubleValue
4.506

@<SCITEGIC>MOL_PROPERTY
Pdih
SciTegic.value.DoubleValue
13.659

@<SCITEGIC>MOL_PROPERTY
Idih
SciTegic.value.DoubleValue
0.000

@<SCITEGIC>MOL_PROPERTY
Tether
SciTegic.value.DoubleValue
0.000

@<TRIPOS>MOLECULE
guest-s17_vm2.mol2 : vm2 ligand conformer 60
          25          25           1
SMALL
USER_CHARGES
 
@<TRIPOS>ATOM
       1    C1      19.985552   19.156494   20.853429 C.3        1 MOL1        -0.1684
       2    H1      18.982362   18.967867   21.252989 H          1 MOL1         0.0833
       3    H2      19.837827   19.267032   19.770513 H          1 MOL1         0.0833
       4    C2      20.880659   17.915705   21.091257 C.3        1 MOL1        -0.1684
       5    H3      20.301259   17.019675   20.830001 H          1 MOL1         0.0833
       6    H4      21.718538   17.945768   20.381377 H          1 MOL1         0.0833
       7    C3      21.464970   17.736287   22.517565 C.3        1 MOL1        -0.1684
       8    H5      22.306513   18.422436   22.677794 H          1 MOL1         0.0833
       9    H6      21.910040   16.732617   22.558386 H          1 MOL1         0.0833
      10    C4      20.451670   17.859792   23.684555 C.3        1 MOL1        -0.1760
      11    H7      19.466451   17.484476   23.379772 H          1 MOL1         0.0833
      12    H8      20.792596   17.172915   24.470645 H          1 MOL1         0.0833
      13    C5      20.336164   19.279838   24.306224 C.3        1 MOL1         0.1219
      14    H9      21.304539   19.794743   24.232279 H          1 MOL1         0.0790
      15    C6      19.240866   20.172449   23.672238 C.3        1 MOL1        -0.1760
      16    H10     18.409734   19.547219   23.325379 H          1 MOL1         0.0833
      17    H11     18.806064   20.807434   24.456030 H          1 MOL1         0.0833
      18    C7      19.717087   21.119250   22.537095 C.3        1 MOL1        -0.1684
      19    H12     20.294694   21.942104   22.979993 H          1 MOL1         0.0833
      20    H13     18.830202   21.585406   22.086616 H          1 MOL1         0.0833
      21    C8      20.567279   20.479519   21.412283 C.3        1 MOL1        -0.1684
      22    H14     21.597127   20.339998   21.761182 H          1 MOL1         0.0833
      23    H15     20.646195   21.204226   20.590463 H          1 MOL1         0.0833
      24    O1      20.019753   19.123666   25.685352 O.3        1 MOL1        -0.5508
      25    H16     20.760567   18.626270   26.090542 H          1 MOL1         0.3780
@<TRIPOS>BOND
    1     1     2    1
    2     1     3    1
    3     1     4    1
    4     4     5    1
    5     4     6    1
    6     4     7    1
    7     7     8    1
    8     7     9    1
    9     7    10    1
   10    10    11    1
   11    10    12    1
   12    10    13    1
   13    13    14    1
   14    13    15    1
   15    15    16    1
   16    15    17    1
   17    15    18    1
   18    18    19    1
   19    18    20    1
   20     1    21    1
   21    18    21    1
   22    21    22    1
   23    21    23    1
   24    13    24    1
   25    24    25    1
@<TRIPOS>SUBSTRUCTURE
       1 MOL1            1 RESIDUE      1      MOL     
@<SCITEGIC>MOL_PROPERTY
VM2 Rank
SciTegic.value.IntegerValue
60

@<SCITEGIC>MOL_PROPERTY
Conf_Id
SciTegic.value.IntegerValue
320

@<SCITEGIC>MOL_PROPERTY
Probability
SciTegic.value.DoubleValue
0.18

@<SCITEGIC>MOL_PROPERTY
Sum Probability
SciTegic.value.DoubleValue
96.69

@<SCITEGIC>MOL_PROPERTY
Delta G
SciTegic.value.DoubleValue
1.947

@<SCITEGIC>MOL_PROPERTY
G
SciTegic.value.DoubleValue
64.022

@<SCITEGIC>MOL_PROPERTY
E
SciTegic.value.DoubleValue
31.664

@<SCITEGIC>MOL_PROPERTY
-TS
SciTegic.value.DoubleValue
32.358

@<SCITEGIC>MOL_PROPERTY
U+W
SciTegic.value.DoubleValue
11.096

@<SCITEGIC>MOL_PROPERTY
U
SciTegic.value.DoubleValue
13.320

@<SCITEGIC>MOL_PROPERTY
W
SciTegic.value.DoubleValue
-2.223

@<SCITEGIC>MOL_PROPERTY
W(PB)
SciTegic.value.DoubleValue
-4.382

@<SCITEGIC>MOL_PROPERTY
W(SA)
SciTegic.value.DoubleValue
2.158

@<SCITEGIC>MOL_PROPERTY
Valence
SciTegic.value.DoubleValue
18.430

@<SCITEGIC>MOL_PROPERTY
Coulomb
SciTegic.value.DoubleValue
-8.418

@<SCITEGIC>MOL_PROPERTY
VdW
SciTegic.value.DoubleValue
3.308

@<SCITEGIC>MOL_PROPERTY
VdW6
SciTegic.value.DoubleValue
-12.374

@<SCITEGIC>MOL_PROPERTY
VdW12
SciTegic.value.DoubleValue
15.682

@<SCITEGIC>MOL_PROPERTY
Bond
SciTegic.value.DoubleValue
0.451

@<SCITEGIC>MOL_PROPERTY
Angle
SciTegic.value.DoubleValue
4.194

@<SCITEGIC>MOL_PROPERTY
Pdih
SciTegic.value.DoubleValue
13.785

@<SCITEGIC>MOL_PROPERTY
Idih
SciTegic.value.DoubleValue
0.000

@<SCITEGIC>MOL_PROPERTY
Tether
SciTegic.value.DoubleValue
0.000

@<TRIPOS>MOLECULE
guest-s17_vm2.mol2 : vm2 ligand conformer 61
          25          25           1
SMALL
USER_CHARGES
 
@<TRIPOS>ATOM
       1    C1      20.045327   19.015641   20.851874 C.3        1 MOL1        -0.1684
       2    H1      19.195097   18.447857   21.247141 H          1 MOL1         0.0833
       3    H2      20.022738   18.832351   19.768984 H          1 MOL1         0.0833
       4    C2      21.384469   18.478887   21.417601 C.3        1 MOL1        -0.1684
       5    H3      21.950932   18.013827   20.599268 H          1 MOL1         0.0833
       6    H4      22.021462   19.300053   21.766457 H          1 MOL1         0.0833
       7    C3      21.219784   17.429898   22.544483 C.3        1 MOL1        -0.1684
       8    H5      22.206524   17.245496   22.990824 H          1 MOL1         0.0833
       9    H6      20.912286   16.475864   22.094864 H          1 MOL1         0.0833
      10    C4      20.212988   17.777886   23.674210 C.3        1 MOL1        -0.1760
      11    H7      19.183252   17.650683   23.319590 H          1 MOL1         0.0833
      12    H8      20.334918   17.015370   24.454993 H          1 MOL1         0.0833
      13    C5      20.375588   19.182815   24.305919 C.3        1 MOL1         0.1219
      14    H9      21.427298   19.493632   24.230837 H          1 MOL1         0.0790
      15    C6      19.468093   20.279593   23.682793 C.3        1 MOL1        -0.1760
      16    H10     18.496669   19.864343   23.386307 H          1 MOL1         0.0833
      17    H11     19.243759   21.010163   24.471870 H          1 MOL1         0.0833
      18    C7      20.104421   21.071079   22.511009 C.3        1 MOL1        -0.1684
      19    H12     21.185589   21.171257   22.671146 H          1 MOL1         0.0833
      20    H13     19.719486   22.099420   22.547851 H          1 MOL1         0.0833
      21    C8      19.813005   20.528390   21.086675 C.3        1 MOL1        -0.1684
      22    H14     20.430928   21.092762   20.374973 H          1 MOL1         0.0833
      23    H15     18.771485   20.760048   20.825166 H          1 MOL1         0.0833
      24    O1      20.040325   19.078811   25.685435 O.3        1 MOL1        -0.5508
      25    H16     20.670639   18.441369   26.081432 H          1 MOL1         0.3780
@<TRIPOS>BOND
    1     1     2    1
    2     1     3    1
    3     1     4    1
    4     4     5    1
    5     4     6    1
    6     4     7    1
    7     7     8    1
    8     7     9    1
    9     7    10    1
   10    10    11    1
   11    10    12    1
   12    10    13    1
   13    13    14    1
   14    13    15    1
   15    15    16    1
   16    15    17    1
   17    15    18    1
   18    18    19    1
   19    18    20    1
   20     1    21    1
   21    18    21    1
   22    21    22    1
   23    21    23    1
   24    13    24    1
   25    24    25    1
@<TRIPOS>SUBSTRUCTURE
       1 MOL1            1 RESIDUE      1      MOL     
@<SCITEGIC>MOL_PROPERTY
VM2 Rank
SciTegic.value.IntegerValue
61

@<SCITEGIC>MOL_PROPERTY
Conf_Id
SciTegic.value.IntegerValue
1043

@<SCITEGIC>MOL_PROPERTY
Probability
SciTegic.value.DoubleValue
0.18

@<SCITEGIC>MOL_PROPERTY
Sum Probability
SciTegic.value.DoubleValue
96.86

@<SCITEGIC>MOL_PROPERTY
Delta G
SciTegic.value.DoubleValue
1.950

@<SCITEGIC>MOL_PROPERTY
G
SciTegic.value.DoubleValue
64.025

@<SCITEGIC>MOL_PROPERTY
E
SciTegic.value.DoubleValue
31.663

@<SCITEGIC>MOL_PROPERTY
-TS
SciTegic.value.DoubleValue
32.362

@<SCITEGIC>MOL_PROPERTY
U+W
SciTegic.value.DoubleValue
11.096

@<SCITEGIC>MOL_PROPERTY
U
SciTegic.value.DoubleValue
13.287

@<SCITEGIC>MOL_PROPERTY
W
SciTegic.value.DoubleValue
-2.191

@<SCITEGIC>MOL_PROPERTY
W(PB)
SciTegic.value.DoubleValue
-4.342

@<SCITEGIC>MOL_PROPERTY
W(SA)
SciTegic.value.DoubleValue
2.151

@<SCITEGIC>MOL_PROPERTY
Valence
SciTegic.value.DoubleValue
18.429

@<SCITEGIC>MOL_PROPERTY
Coulomb
SciTegic.value.DoubleValue
-8.446

@<SCITEGIC>MOL_PROPERTY
VdW
SciTegic.value.DoubleValue
3.304

@<SCITEGIC>MOL_PROPERTY
VdW6
SciTegic.value.DoubleValue
-12.366

@<SCITEGIC>MOL_PROPERTY
VdW12
SciTegic.value.DoubleValue
15.671

@<SCITEGIC>MOL_PROPERTY
Bond
SciTegic.value.DoubleValue
0.449

@<SCITEGIC>MOL_PROPERTY
Angle
SciTegic.value.DoubleValue
4.240

@<SCITEGIC>MOL_PROPERTY
Pdih
SciTegic.value.DoubleValue
13.741

@<SCITEGIC>MOL_PROPERTY
Idih
SciTegic.value.DoubleValue
0.000

@<SCITEGIC>MOL_PROPERTY
Tether
SciTegic.value.DoubleValue
0.000

@<TRIPOS>MOLECULE
guest-s17_vm2.mol2 : vm2 ligand conformer 62
          25          25           1
SMALL
USER_CHARGES
 
@<TRIPOS>ATOM
       1    C1      19.987626   19.158923   20.851522 C.3        1 MOL1        -0.1684
       2    H1      18.982071   18.972118   21.245813 H          1 MOL1         0.0833
       3    H2      19.845039   19.271028   19.768075 H          1 MOL1         0.0833
       4    C2      20.878167   17.915174   21.091396 C.3        1 MOL1        -0.1684
       5    H3      20.295426   17.020888   20.831623 H          1 MOL1         0.0833
       6    H4      21.715670   17.941156   20.380918 H          1 MOL1         0.0833
       7    C3      21.463627   17.734833   22.517186 C.3        1 MOL1        -0.1684
       8    H5      22.306787   18.419138   22.676600 H          1 MOL1         0.0833
       9    H6      21.906782   16.730349   22.557701 H          1 MOL1         0.0833
      10    C4      20.453558   17.859848   23.687048 C.3        1 MOL1        -0.1760
      11    H7      19.468951   17.477190   23.390189 H          1 MOL1         0.0833
      12    H8      20.802380   17.182843   24.478685 H          1 MOL1         0.0833
      13    C5      20.335355   19.280400   24.305768 C.3        1 MOL1         0.1219
      14    H9      21.304991   19.792751   24.230670 H          1 MOL1         0.0790
      15    C6      19.238287   20.169889   23.669711 C.3        1 MOL1        -0.1760
      16    H10     18.413339   19.540266   23.315697 H          1 MOL1         0.0833
      17    H11     18.791478   20.802873   24.447922 H          1 MOL1         0.0833
      18    C7      19.717057   21.118976   22.537885 C.3        1 MOL1        -0.1684
      19    H12     20.293361   21.941728   22.982667 H          1 MOL1         0.0833
      20    H13     18.831125   21.585211   22.085508 H          1 MOL1         0.0833
      21    C8      20.569617   20.480328   21.414217 C.3        1 MOL1        -0.1684
      22    H14     21.598552   20.339073   21.765092 H          1 MOL1         0.0833
      23    H15     20.651131   21.206396   20.593844 H          1 MOL1         0.0833
      24    O1      20.020707   19.124629   25.685267 O.3        1 MOL1        -0.5508
      25    H16     20.025520   20.022242   26.078595 H          1 MOL1         0.3780
@<TRIPOS>BOND
    1     1     2    1
    2     1     3    1
    3     1     4    1
    4     4     5    1
    5     4     6    1
    6     4     7    1
    7     7     8    1
    8     7     9    1
    9     7    10    1
   10    10    11    1
   11    10    12    1
   12    10    13    1
   13    13    14    1
   14    13    15    1
   15    15    16    1
   16    15    17    1
   17    15    18    1
   18    18    19    1
   19    18    20    1
   20     1    21    1
   21    18    21    1
   22    21    22    1
   23    21    23    1
   24    13    24    1
   25    24    25    1
@<TRIPOS>SUBSTRUCTURE
       1 MOL1            1 RESIDUE      1      MOL     
@<SCITEGIC>MOL_PROPERTY
VM2 Rank
SciTegic.value.IntegerValue
62

@<SCITEGIC>MOL_PROPERTY
Conf_Id
SciTegic.value.IntegerValue
1501

@<SCITEGIC>MOL_PROPERTY
Probability
SciTegic.value.DoubleValue
0.17

@<SCITEGIC>MOL_PROPERTY
Sum Probability
SciTegic.value.DoubleValue
97.04

@<SCITEGIC>MOL_PROPERTY
Delta G
SciTegic.value.DoubleValue
1.963

@<SCITEGIC>MOL_PROPERTY
G
SciTegic.value.DoubleValue
64.039

@<SCITEGIC>MOL_PROPERTY
E
SciTegic.value.DoubleValue
31.677

@<SCITEGIC>MOL_PROPERTY
-TS
SciTegic.value.DoubleValue
32.362

@<SCITEGIC>MOL_PROPERTY
U+W
SciTegic.value.DoubleValue
11.109

@<SCITEGIC>MOL_PROPERTY
U
SciTegic.value.DoubleValue
13.287

@<SCITEGIC>MOL_PROPERTY
W
SciTegic.value.DoubleValue
-2.178

@<SCITEGIC>MOL_PROPERTY
W(PB)
SciTegic.value.DoubleValue
-4.334

@<SCITEGIC>MOL_PROPERTY
W(SA)
SciTegic.value.DoubleValue
2.156

@<SCITEGIC>MOL_PROPERTY
Valence
SciTegic.value.DoubleValue
18.429

@<SCITEGIC>MOL_PROPERTY
Coulomb
SciTegic.value.DoubleValue
-8.446

@<SCITEGIC>MOL_PROPERTY
VdW
SciTegic.value.DoubleValue
3.304

@<SCITEGIC>MOL_PROPERTY
VdW6
SciTegic.value.DoubleValue
-12.366

@<SCITEGIC>MOL_PROPERTY
VdW12
SciTegic.value.DoubleValue
15.671

@<SCITEGIC>MOL_PROPERTY
Bond
SciTegic.value.DoubleValue
0.449

@<SCITEGIC>MOL_PROPERTY
Angle
SciTegic.value.DoubleValue
4.240

@<SCITEGIC>MOL_PROPERTY
Pdih
SciTegic.value.DoubleValue
13.740

@<SCITEGIC>MOL_PROPERTY
Idih
SciTegic.value.DoubleValue
0.000

@<SCITEGIC>MOL_PROPERTY
Tether
SciTegic.value.DoubleValue
0.000

@<TRIPOS>MOLECULE
guest-s17_vm2.mol2 : vm2 ligand conformer 63
          25          25           1
SMALL
USER_CHARGES
 
@<TRIPOS>ATOM
       1    C1      20.866373   19.422233   20.598169 C.3        1 MOL1        -0.1684
       2    H1      21.918353   19.489414   20.288980 H          1 MOL1         0.0833
       3    H2      20.278009   19.563975   19.681330 H          1 MOL1         0.0833
       4    C2      20.588925   17.989252   21.125542 C.3        1 MOL1        -0.1684
       5    H3      19.511091   17.783039   21.134508 H          1 MOL1         0.0833
       6    H4      21.000365   17.290812   20.383947 H          1 MOL1         0.0833
       7    C3      21.205970   17.638701   22.502195 C.3        1 MOL1        -0.1684
       8    H5      22.176892   18.135574   22.632000 H          1 MOL1         0.0833
       9    H6      21.429112   16.562967   22.486668 H          1 MOL1         0.0833
      10    C4      20.277287   17.889305   23.723874 C.3        1 MOL1        -0.1760
      11    H7      19.232685   17.663470   23.474160 H          1 MOL1         0.0833
      12    H8      20.557809   17.153995   24.489786 H          1 MOL1         0.0833
      13    C5      20.387880   19.301433   24.349144 C.3        1 MOL1         0.1219
      14    H9      21.398659   19.688883   24.164223 H          1 MOL1         0.0790
      15    C6      19.346613   20.329560   23.840330 C.3        1 MOL1        -0.1760
      16    H10     18.360452   20.072788   24.249369 H          1 MOL1         0.0833
      17    H11     19.605875   21.306122   24.269605 H          1 MOL1         0.0833
      18    C7      19.212923   20.489015   22.304668 C.3        1 MOL1        -0.1684
      19    H12     18.627077   21.396857   22.106439 H          1 MOL1         0.0833
      20    H13     18.606259   19.670781   21.899591 H          1 MOL1         0.0833
      21    C8      20.567715   20.598475   21.560115 C.3        1 MOL1        -0.1684
      22    H14     21.397818   20.716573   22.266187 H          1 MOL1         0.0833
      23    H15     20.570382   21.525981   20.971391 H          1 MOL1         0.0833
      24    O1      20.210314   19.185024   25.755963 O.3        1 MOL1        -0.5508
      25    H16     20.922203   18.595973   26.082597 H          1 MOL1         0.3780
@<TRIPOS>BOND
    1     1     2    1
    2     1     3    1
    3     1     4    1
    4     4     5    1
    5     4     6    1
    6     4     7    1
    7     7     8    1
    8     7     9    1
    9     7    10    1
   10    10    11    1
   11    10    12    1
   12    10    13    1
   13    13    14    1
   14    13    15    1
   15    15    16    1
   16    15    17    1
   17    15    18    1
   18    18    19    1
   19    18    20    1
   20     1    21    1
   21    18    21    1
   22    21    22    1
   23    21    23    1
   24    13    24    1
   25    24    25    1
@<TRIPOS>SUBSTRUCTURE
       1 MOL1            1 RESIDUE      1      MOL     
@<SCITEGIC>MOL_PROPERTY
VM2 Rank
SciTegic.value.IntegerValue
63

@<SCITEGIC>MOL_PROPERTY
Conf_Id
SciTegic.value.IntegerValue
426

@<SCITEGIC>MOL_PROPERTY
Probability
SciTegic.value.DoubleValue
0.17

@<SCITEGIC>MOL_PROPERTY
Sum Probability
SciTegic.value.DoubleValue
97.21

@<SCITEGIC>MOL_PROPERTY
Delta G
SciTegic.value.DoubleValue
1.966

@<SCITEGIC>MOL_PROPERTY
G
SciTegic.value.DoubleValue
64.042

@<SCITEGIC>MOL_PROPERTY
E
SciTegic.value.DoubleValue
31.758

@<SCITEGIC>MOL_PROPERTY
-TS
SciTegic.value.DoubleValue
32.284

@<SCITEGIC>MOL_PROPERTY
U+W
SciTegic.value.DoubleValue
11.190

@<SCITEGIC>MOL_PROPERTY
U
SciTegic.value.DoubleValue
13.296

@<SCITEGIC>MOL_PROPERTY
W
SciTegic.value.DoubleValue
-2.106

@<SCITEGIC>MOL_PROPERTY
W(PB)
SciTegic.value.DoubleValue
-4.269

@<SCITEGIC>MOL_PROPERTY
W(SA)
SciTegic.value.DoubleValue
2.162

@<SCITEGIC>MOL_PROPERTY
Valence
SciTegic.value.DoubleValue
18.607

@<SCITEGIC>MOL_PROPERTY
Coulomb
SciTegic.value.DoubleValue
-8.339

@<SCITEGIC>MOL_PROPERTY
VdW
SciTegic.value.DoubleValue
3.028

@<SCITEGIC>MOL_PROPERTY
VdW6
SciTegic.value.DoubleValue
-12.271

@<SCITEGIC>MOL_PROPERTY
VdW12
SciTegic.value.DoubleValue
15.299

@<SCITEGIC>MOL_PROPERTY
Bond
SciTegic.value.DoubleValue
0.424

@<SCITEGIC>MOL_PROPERTY
Angle
SciTegic.value.DoubleValue
4.487

@<SCITEGIC>MOL_PROPERTY
Pdih
SciTegic.value.DoubleValue
13.696

@<SCITEGIC>MOL_PROPERTY
Idih
SciTegic.value.DoubleValue
0.000

@<SCITEGIC>MOL_PROPERTY
Tether
SciTegic.value.DoubleValue
0.000

@<TRIPOS>MOLECULE
guest-s17_vm2.mol2 : vm2 ligand conformer 64
          25          25           1
SMALL
USER_CHARGES
 
@<TRIPOS>ATOM
       1    C1      20.042283   19.016057   20.853740 C.3        1 MOL1        -0.1684
       2    H1      19.192400   18.451282   21.254173 H          1 MOL1         0.0833
       3    H2      20.014992   18.830357   19.771374 H          1 MOL1         0.0833
       4    C2      21.382291   18.477832   21.415714 C.3        1 MOL1        -0.1684
       5    H3      21.945998   18.011948   20.595955 H          1 MOL1         0.0833
       6    H4      22.021165   19.298329   21.762712 H          1 MOL1         0.0833
       7    C3      21.219880   17.429670   22.543659 C.3        1 MOL1        -0.1684
       8    H5      22.207575   17.245994   22.988183 H          1 MOL1         0.0833
       9    H6      20.911602   16.475083   22.095858 H          1 MOL1         0.0833
      10    C4      20.216443   17.777832   23.676650 C.3        1 MOL1        -0.1760
      11    H7      19.185359   17.643302   23.329123 H          1 MOL1         0.0833
      12    H8      20.348228   17.022234   24.462965 H          1 MOL1         0.0833
      13    C5      20.375673   19.183698   24.306377 C.3        1 MOL1         0.1219
      14    H9      21.428293   19.491728   24.232548 H          1 MOL1         0.0790
      15    C6      19.466739   20.278337   23.680321 C.3        1 MOL1        -0.1760
      16    H10     18.499981   19.857495   23.375884 H          1 MOL1         0.0833
      17    H11     19.229917   21.010419   24.463864 H          1 MOL1         0.0833
      18    C7      20.106548   21.071013   22.511473 C.3        1 MOL1        -0.1684
      19    H12     21.187843   21.168677   22.672510 H          1 MOL1         0.0833
      20    H13     19.723607   22.100130   22.548641 H          1 MOL1         0.0833
      21    C8      19.815370   20.529873   21.086571 C.3        1 MOL1        -0.1684
      22    H14     20.436479   21.091597   20.375540 H          1 MOL1         0.0833
      23    H15     18.775048   20.765172   20.823521 H          1 MOL1         0.0833
      24    O1      20.038773   19.078689   25.685495 O.3        1 MOL1        -0.5508
      25    H16     20.220751   19.953433   26.088106 H          1 MOL1         0.3780
@<TRIPOS>BOND
    1     1     2    1
    2     1     3    1
    3     1     4    1
    4     4     5    1
    5     4     6    1
    6     4     7    1
    7     7     8    1
    8     7     9    1
    9     7    10    1
   10    10    11    1
   11    10    12    1
   12    10    13    1
   13    13    14    1
   14    13    15    1
   15    15    16    1
   16    15    17    1
   17    15    18    1
   18    18    19    1
   19    18    20    1
   20     1    21    1
   21    18    21    1
   22    21    22    1
   23    21    23    1
   24    13    24    1
   25    24    25    1
@<TRIPOS>SUBSTRUCTURE
       1 MOL1            1 RESIDUE      1      MOL     
@<SCITEGIC>MOL_PROPERTY
VM2 Rank
SciTegic.value.IntegerValue
64

@<SCITEGIC>MOL_PROPERTY
Conf_Id
SciTegic.value.IntegerValue
911

@<SCITEGIC>MOL_PROPERTY
Probability
SciTegic.value.DoubleValue
0.17

@<SCITEGIC>MOL_PROPERTY
Sum Probability
SciTegic.value.DoubleValue
97.39

@<SCITEGIC>MOL_PROPERTY
Delta G
SciTegic.value.DoubleValue
1.970

@<SCITEGIC>MOL_PROPERTY
G
SciTegic.value.DoubleValue
64.045

@<SCITEGIC>MOL_PROPERTY
E
SciTegic.value.DoubleValue
31.687

@<SCITEGIC>MOL_PROPERTY
-TS
SciTegic.value.DoubleValue
32.358

@<SCITEGIC>MOL_PROPERTY
U+W
SciTegic.value.DoubleValue
11.120

@<SCITEGIC>MOL_PROPERTY
U
SciTegic.value.DoubleValue
13.320

@<SCITEGIC>MOL_PROPERTY
W
SciTegic.value.DoubleValue
-2.200

@<SCITEGIC>MOL_PROPERTY
W(PB)
SciTegic.value.DoubleValue
-4.347

@<SCITEGIC>MOL_PROPERTY
W(SA)
SciTegic.value.DoubleValue
2.147

@<SCITEGIC>MOL_PROPERTY
Valence
SciTegic.value.DoubleValue
18.430

@<SCITEGIC>MOL_PROPERTY
Coulomb
SciTegic.value.DoubleValue
-8.418

@<SCITEGIC>MOL_PROPERTY
VdW
SciTegic.value.DoubleValue
3.308

@<SCITEGIC>MOL_PROPERTY
VdW6
SciTegic.value.DoubleValue
-12.374

@<SCITEGIC>MOL_PROPERTY
VdW12
SciTegic.value.DoubleValue
15.682

@<SCITEGIC>MOL_PROPERTY
Bond
SciTegic.value.DoubleValue
0.451

@<SCITEGIC>MOL_PROPERTY
Angle
SciTegic.value.DoubleValue
4.194

@<SCITEGIC>MOL_PROPERTY
Pdih
SciTegic.value.DoubleValue
13.785

@<SCITEGIC>MOL_PROPERTY
Idih
SciTegic.value.DoubleValue
0.000

@<SCITEGIC>MOL_PROPERTY
Tether
SciTegic.value.DoubleValue
0.000

@<TRIPOS>MOLECULE
guest-s17_vm2.mol2 : vm2 ligand conformer 65
          25          25           1
SMALL
USER_CHARGES
 
@<TRIPOS>ATOM
       1    C1      20.041017   19.014807   20.853131 C.3        1 MOL1        -0.1684
       2    H1      20.013942   18.830522   19.770511 H          1 MOL1         0.0833
       3    H2      19.191778   18.448429   21.252465 H          1 MOL1         0.0833
       4    C2      21.381908   18.477648   21.414036 C.3        1 MOL1        -0.1684
       5    H3      21.944147   18.010113   20.594203 H          1 MOL1         0.0833
       6    H4      22.021648   19.298704   21.758067 H          1 MOL1         0.0833
       7    C3      21.222090   17.431625   22.544212 C.3        1 MOL1        -0.1684
       8    H5      22.210179   17.251925   22.989558 H          1 MOL1         0.0833
       9    H6      20.917340   16.475204   22.097850 H          1 MOL1         0.0833
      10    C4      20.216778   17.778039   23.675813 C.3        1 MOL1        -0.1760
      11    H7      19.187070   17.642985   23.323995 H          1 MOL1         0.0833
      12    H8      20.350025   17.019806   24.459496 H          1 MOL1         0.0833
      13    C5      20.375392   19.183353   24.307229 C.3        1 MOL1         0.1219
      14    H9      21.428020   19.492251   24.239935 H          1 MOL1         0.0790
      15    C6      19.470360   20.281720   23.683001 C.3        1 MOL1        -0.1760
      16    H10     18.498450   19.869453   23.383342 H          1 MOL1         0.0833
      17    H11     19.248334   21.016173   24.469309 H          1 MOL1         0.0833
      18    C7      20.109172   21.069990   22.510810 C.3        1 MOL1        -0.1684
      19    H12     21.191039   21.164945   22.669559 H          1 MOL1         0.0833
      20    H13     19.729395   22.100273   22.547710 H          1 MOL1         0.0833
      21    C8      19.812416   20.528097   21.087387 C.3        1 MOL1        -0.1684
      22    H14     20.429878   21.090722   20.373894 H          1 MOL1         0.0833
      23    H15     18.770759   20.762076   20.828490 H          1 MOL1         0.0833
      24    O1      20.034867   19.077721   25.684379 O.3        1 MOL1        -0.5508
      25    H16     19.095102   18.803804   25.716164 H          1 MOL1         0.3780
@<TRIPOS>BOND
    1     1     2    1
    2     1     3    1
    3     1     4    1
    4     4     5    1
    5     4     6    1
    6     4     7    1
    7     7     8    1
    8     7     9    1
    9     7    10    1
   10    10    11    1
   11    10    12    1
   12    10    13    1
   13    13    14    1
   14    13    15    1
   15    15    16    1
   16    15    17    1
   17    15    18    1
   18    18    19    1
   19    18    20    1
   20     1    21    1
   21    18    21    1
   22    21    22    1
   23    21    23    1
   24    13    24    1
   25    24    25    1
@<TRIPOS>SUBSTRUCTURE
       1 MOL1            1 RESIDUE      1      MOL     
@<SCITEGIC>MOL_PROPERTY
VM2 Rank
SciTegic.value.IntegerValue
65

@<SCITEGIC>MOL_PROPERTY
Conf_Id
SciTegic.value.IntegerValue
1012

@<SCITEGIC>MOL_PROPERTY
Probability
SciTegic.value.DoubleValue
0.17

@<SCITEGIC>MOL_PROPERTY
Sum Probability
SciTegic.value.DoubleValue
97.55

@<SCITEGIC>MOL_PROPERTY
Delta G
SciTegic.value.DoubleValue
1.983

@<SCITEGIC>MOL_PROPERTY
G
SciTegic.value.DoubleValue
64.059

@<SCITEGIC>MOL_PROPERTY
E
SciTegic.value.DoubleValue
31.724

@<SCITEGIC>MOL_PROPERTY
-TS
SciTegic.value.DoubleValue
32.335

@<SCITEGIC>MOL_PROPERTY
U+W
SciTegic.value.DoubleValue
11.156

@<SCITEGIC>MOL_PROPERTY
U
SciTegic.value.DoubleValue
13.141

@<SCITEGIC>MOL_PROPERTY
W
SciTegic.value.DoubleValue
-1.984

@<SCITEGIC>MOL_PROPERTY
W(PB)
SciTegic.value.DoubleValue
-4.127

@<SCITEGIC>MOL_PROPERTY
W(SA)
SciTegic.value.DoubleValue
2.143

@<SCITEGIC>MOL_PROPERTY
Valence
SciTegic.value.DoubleValue
18.807

@<SCITEGIC>MOL_PROPERTY
Coulomb
SciTegic.value.DoubleValue
-8.930

@<SCITEGIC>MOL_PROPERTY
VdW
SciTegic.value.DoubleValue
3.263

@<SCITEGIC>MOL_PROPERTY
VdW6
SciTegic.value.DoubleValue
-12.382

@<SCITEGIC>MOL_PROPERTY
VdW12
SciTegic.value.DoubleValue
15.645

@<SCITEGIC>MOL_PROPERTY
Bond
SciTegic.value.DoubleValue
0.441

@<SCITEGIC>MOL_PROPERTY
Angle
SciTegic.value.DoubleValue
4.299

@<SCITEGIC>MOL_PROPERTY
Pdih
SciTegic.value.DoubleValue
14.067

@<SCITEGIC>MOL_PROPERTY
Idih
SciTegic.value.DoubleValue
0.000

@<SCITEGIC>MOL_PROPERTY
Tether
SciTegic.value.DoubleValue
0.000

@<TRIPOS>MOLECULE
guest-s17_vm2.mol2 : vm2 ligand conformer 66
          25          25           1
SMALL
USER_CHARGES
 
@<TRIPOS>ATOM
       1    C1      21.076121   19.450960   20.999896 C.3        1 MOL1        -0.1684
       2    H1      21.480262   19.448326   19.978414 H          1 MOL1         0.0833
       3    H2      21.949044   19.610259   21.643392 H          1 MOL1         0.0833
       4    C2      20.422960   18.073606   21.278145 C.3        1 MOL1        -0.1684
       5    H3      19.335198   18.166789   21.377364 H          1 MOL1         0.0833
       6    H4      20.569266   17.430855   20.399344 H          1 MOL1         0.0833
       7    C3      20.998569   17.337421   22.512529 C.3        1 MOL1        -0.1684
       8    H5      21.981399   16.923566   22.248669 H          1 MOL1         0.0833
       9    H6      20.357640   16.471289   22.726938 H          1 MOL1         0.0833
      10    C4      21.160415   18.175631   23.809595 C.3        1 MOL1        -0.1760
      11    H7      22.028585   18.840271   23.726838 H          1 MOL1         0.0833
      12    H8      21.419135   17.470279   24.611077 H          1 MOL1         0.0833
      13    C5      19.915802   18.989687   24.242040 C.3        1 MOL1         0.1219
      14    H9      19.009189   18.473039   23.896928 H          1 MOL1         0.0790
      15    C6      19.897068   20.461507   23.743483 C.3        1 MOL1        -0.1760
      16    H10     19.342881   21.055989   24.482717 H          1 MOL1         0.0833
      17    H11     20.909239   20.885231   23.725099 H          1 MOL1         0.0833
      18    C7      19.191926   20.683549   22.380778 C.3        1 MOL1        -0.1684
      19    H12     18.712736   21.671948   22.403586 H          1 MOL1         0.0833
      20    H13     18.362681   19.973319   22.268618 H          1 MOL1         0.0833
      21    C8      20.108989   20.653066   21.129411 C.3        1 MOL1        -0.1684
      22    H14     20.703497   21.576458   21.102404 H          1 MOL1         0.0833
      23    H15     19.468325   20.685528   20.237573 H          1 MOL1         0.0833
      24    O1      19.892150   19.017573   25.664123 O.3        1 MOL1        -0.5508
      25    H16     20.706894   19.483042   25.944710 H          1 MOL1         0.3780
@<TRIPOS>BOND
    1     1     2    1
    2     1     3    1
    3     1     4    1
    4     4     5    1
    5     4     6    1
    6     4     7    1
    7     7     8    1
    8     7     9    1
    9     7    10    1
   10    10    11    1
   11    10    12    1
   12    10    13    1
   13    13    14    1
   14    13    15    1
   15    15    16    1
   16    15    17    1
   17    15    18    1
   18    18    19    1
   19    18    20    1
   20     1    21    1
   21    18    21    1
   22    21    22    1
   23    21    23    1
   24    13    24    1
   25    24    25    1
@<TRIPOS>SUBSTRUCTURE
       1 MOL1            1 RESIDUE      1      MOL     
@<SCITEGIC>MOL_PROPERTY
VM2 Rank
SciTegic.value.IntegerValue
66

@<SCITEGIC>MOL_PROPERTY
Conf_Id
SciTegic.value.IntegerValue
1682

@<SCITEGIC>MOL_PROPERTY
Probability
SciTegic.value.DoubleValue
0.16

@<SCITEGIC>MOL_PROPERTY
Sum Probability
SciTegic.value.DoubleValue
97.72

@<SCITEGIC>MOL_PROPERTY
Delta G
SciTegic.value.DoubleValue
1.999

@<SCITEGIC>MOL_PROPERTY
G
SciTegic.value.DoubleValue
64.074

@<SCITEGIC>MOL_PROPERTY
E
SciTegic.value.DoubleValue
31.739

@<SCITEGIC>MOL_PROPERTY
-TS
SciTegic.value.DoubleValue
32.335

@<SCITEGIC>MOL_PROPERTY
U+W
SciTegic.value.DoubleValue
11.172

@<SCITEGIC>MOL_PROPERTY
U
SciTegic.value.DoubleValue
13.140

@<SCITEGIC>MOL_PROPERTY
W
SciTegic.value.DoubleValue
-1.969

@<SCITEGIC>MOL_PROPERTY
W(PB)
SciTegic.value.DoubleValue
-4.104

@<SCITEGIC>MOL_PROPERTY
W(SA)
SciTegic.value.DoubleValue
2.136

@<SCITEGIC>MOL_PROPERTY
Valence
SciTegic.value.DoubleValue
18.806

@<SCITEGIC>MOL_PROPERTY
Coulomb
SciTegic.value.DoubleValue
-8.930

@<SCITEGIC>MOL_PROPERTY
VdW
SciTegic.value.DoubleValue
3.264

@<SCITEGIC>MOL_PROPERTY
VdW6
SciTegic.value.DoubleValue
-12.382

@<SCITEGIC>MOL_PROPERTY
VdW12
SciTegic.value.DoubleValue
15.646

@<SCITEGIC>MOL_PROPERTY
Bond
SciTegic.value.DoubleValue
0.441

@<SCITEGIC>MOL_PROPERTY
Angle
SciTegic.value.DoubleValue
4.299

@<SCITEGIC>MOL_PROPERTY
Pdih
SciTegic.value.DoubleValue
14.067

@<SCITEGIC>MOL_PROPERTY
Idih
SciTegic.value.DoubleValue
0.000

@<SCITEGIC>MOL_PROPERTY
Tether
SciTegic.value.DoubleValue
0.000

@<TRIPOS>MOLECULE
guest-s17_vm2.mol2 : vm2 ligand conformer 67
          25          25           1
SMALL
USER_CHARGES
 
@<TRIPOS>ATOM
       1    C1      20.866075   19.436553   20.598501 C.3        1 MOL1        -0.1684
       2    H1      21.663950   20.124191   20.286522 H          1 MOL1         0.0833
       3    H2      20.549029   18.915411   19.684857 H          1 MOL1         0.0833
       4    C2      21.474739   18.397267   21.571590 C.3        1 MOL1        -0.1684
       5    H3      22.133653   17.736102   20.992311 H          1 MOL1         0.0833
       6    H4      22.142006   18.902446   22.279548 H          1 MOL1         0.0833
       7    C3      20.428648   17.527474   22.313554 C.3        1 MOL1        -0.1684
       8    H5      20.649829   16.468912   22.120468 H          1 MOL1         0.0833
       9    H6      19.424637   17.682666   21.901767 H          1 MOL1         0.0833
      10    C4      20.402805   17.740717   23.847992 C.3        1 MOL1        -0.1760
      11    H7      19.519777   17.227161   24.250352 H          1 MOL1         0.0833
      12    H8      21.272689   17.230632   24.282430 H          1 MOL1         0.0833
      13    C5      20.418989   19.206486   24.351052 C.3        1 MOL1         0.1219
      14    H9      21.412841   19.639213   24.175894 H          1 MOL1         0.0790
      15    C6      19.358070   20.137825   23.715333 C.3        1 MOL1        -0.1760
      16    H10     18.449736   19.574084   23.467133 H          1 MOL1         0.0833
      17    H11     19.052569   20.867765   24.477439 H          1 MOL1         0.0833
      18    C7      19.852826   20.957227   22.489883 C.3        1 MOL1        -0.1684
      19    H12     20.894213   21.280201   22.622763 H          1 MOL1         0.0833
      20    H13     19.261835   21.883169   22.466183 H          1 MOL1         0.0833
      21    C8      19.661937   20.267129   21.116570 C.3        1 MOL1        -0.1684
      22    H14     19.468403   21.049392   20.369794 H          1 MOL1         0.0833
      23    H15     18.748517   19.658965   21.126296 H          1 MOL1         0.0833
      24    O1      20.199911   19.172323   25.755526 O.3        1 MOL1        -0.5508
      25    H16     19.302390   18.803351   25.887016 H          1 MOL1         0.3780
@<TRIPOS>BOND
    1     1     2    1
    2     1     3    1
    3     1     4    1
    4     4     5    1
    5     4     6    1
    6     4     7    1
    7     7     8    1
    8     7     9    1
    9     7    10    1
   10    10    11    1
   11    10    12    1
   12    10    13    1
   13    13    14    1
   14    13    15    1
   15    15    16    1
   16    15    17    1
   17    15    18    1
   18    18    19    1
   19    18    20    1
   20     1    21    1
   21    18    21    1
   22    21    22    1
   23    21    23    1
   24    13    24    1
   25    24    25    1
@<TRIPOS>SUBSTRUCTURE
       1 MOL1            1 RESIDUE      1      MOL     
@<SCITEGIC>MOL_PROPERTY
VM2 Rank
SciTegic.value.IntegerValue
67

@<SCITEGIC>MOL_PROPERTY
Conf_Id
SciTegic.value.IntegerValue
1247

@<SCITEGIC>MOL_PROPERTY
Probability
SciTegic.value.DoubleValue
0.16

@<SCITEGIC>MOL_PROPERTY
Sum Probability
SciTegic.value.DoubleValue
97.88

@<SCITEGIC>MOL_PROPERTY
Delta G
SciTegic.value.DoubleValue
2.011

@<SCITEGIC>MOL_PROPERTY
G
SciTegic.value.DoubleValue
64.086

@<SCITEGIC>MOL_PROPERTY
E
SciTegic.value.DoubleValue
31.829

@<SCITEGIC>MOL_PROPERTY
-TS
SciTegic.value.DoubleValue
32.257

@<SCITEGIC>MOL_PROPERTY
U+W
SciTegic.value.DoubleValue
11.261

@<SCITEGIC>MOL_PROPERTY
U
SciTegic.value.DoubleValue
13.202

@<SCITEGIC>MOL_PROPERTY
W
SciTegic.value.DoubleValue
-1.941

@<SCITEGIC>MOL_PROPERTY
W(PB)
SciTegic.value.DoubleValue
-4.073

@<SCITEGIC>MOL_PROPERTY
W(SA)
SciTegic.value.DoubleValue
2.132

@<SCITEGIC>MOL_PROPERTY
Valence
SciTegic.value.DoubleValue
18.957

@<SCITEGIC>MOL_PROPERTY
Coulomb
SciTegic.value.DoubleValue
-8.753

@<SCITEGIC>MOL_PROPERTY
VdW
SciTegic.value.DoubleValue
2.998

@<SCITEGIC>MOL_PROPERTY
VdW6
SciTegic.value.DoubleValue
-12.294

@<SCITEGIC>MOL_PROPERTY
VdW12
SciTegic.value.DoubleValue
15.292

@<SCITEGIC>MOL_PROPERTY
Bond
SciTegic.value.DoubleValue
0.419

@<SCITEGIC>MOL_PROPERTY
Angle
SciTegic.value.DoubleValue
4.543

@<SCITEGIC>MOL_PROPERTY
Pdih
SciTegic.value.DoubleValue
13.996

@<SCITEGIC>MOL_PROPERTY
Idih
SciTegic.value.DoubleValue
0.000

@<SCITEGIC>MOL_PROPERTY
Tether
SciTegic.value.DoubleValue
0.000

@<TRIPOS>MOLECULE
guest-s17_vm2.mol2 : vm2 ligand conformer 68
          25          25           1
SMALL
USER_CHARGES
 
@<TRIPOS>ATOM
       1    C1      20.941094   19.392318   20.764020 C.3        1 MOL1        -0.1684
       2    H1      21.866194   19.853311   21.132624 H          1 MOL1         0.0833
       3    H2      21.030794   19.421779   19.669464 H          1 MOL1         0.0833
       4    C2      20.874701   17.896849   21.172995 C.3        1 MOL1        -0.1684
       5    H3      20.149946   17.383828   20.526271 H          1 MOL1         0.0833
       6    H4      21.848474   17.438918   20.952079 H          1 MOL1         0.0833
       7    C3      20.507211   17.595152   22.645989 C.3        1 MOL1        -0.1684
       8    H5      20.709177   16.533169   22.840311 H          1 MOL1         0.0833
       9    H6      19.424795   17.702870   22.783401 H          1 MOL1         0.0833
      10    C4      21.284906   18.448682   23.682401 C.3        1 MOL1        -0.1760
      11    H7      21.828008   17.774877   24.357698 H          1 MOL1         0.0833
      12    H8      22.069962   19.036143   23.194388 H          1 MOL1         0.0833
      13    C5      20.405031   19.395017   24.533476 C.3        1 MOL1         0.1219
      14    H9      21.079844   20.095834   25.045896 H          1 MOL1         0.0790
      15    C6      19.350687   20.229401   23.763097 C.3        1 MOL1        -0.1760
      16    H10     18.492037   19.605231   23.486645 H          1 MOL1         0.0833
      17    H11     18.949814   20.961537   24.476183 H          1 MOL1         0.0833
      18    C7      19.860840   21.007188   22.522139 C.3        1 MOL1        -0.1684
      19    H12     20.889551   21.359087   22.677345 H          1 MOL1         0.0833
      20    H13     19.251039   21.917888   22.445342 H          1 MOL1         0.0833
      21    C8      19.721753   20.258524   21.167253 C.3        1 MOL1        -0.1684
      22    H14     19.605660   21.026353   20.390015 H          1 MOL1         0.0833
      23    H15     18.796060   19.668472   21.133134 H          1 MOL1         0.0833
      24    O1      19.717777   18.619869   25.508630 O.3        1 MOL1        -0.5508
      25    H16     20.396963   18.097978   25.983452 H          1 MOL1         0.3780
@<TRIPOS>BOND
    1     1     2    1
    2     1     3    1
    3     1     4    1
    4     4     5    1
    5     4     6    1
    6     4     7    1
    7     7     8    1
    8     7     9    1
    9     7    10    1
   10    10    11    1
   11    10    12    1
   12    10    13    1
   13    13    14    1
   14    13    15    1
   15    15    16    1
   16    15    17    1
   17    15    18    1
   18    18    19    1
   19    18    20    1
   20     1    21    1
   21    18    21    1
   22    21    22    1
   23    21    23    1
   24    13    24    1
   25    24    25    1
@<TRIPOS>SUBSTRUCTURE
       1 MOL1            1 RESIDUE      1      MOL     
@<SCITEGIC>MOL_PROPERTY
VM2 Rank
SciTegic.value.IntegerValue
68

@<SCITEGIC>MOL_PROPERTY
Conf_Id
SciTegic.value.IntegerValue
1923

@<SCITEGIC>MOL_PROPERTY
Probability
SciTegic.value.DoubleValue
0.16

@<SCITEGIC>MOL_PROPERTY
Sum Probability
SciTegic.value.DoubleValue
98.03

@<SCITEGIC>MOL_PROPERTY
Delta G
SciTegic.value.DoubleValue
2.030

@<SCITEGIC>MOL_PROPERTY
G
SciTegic.value.DoubleValue
64.106

@<SCITEGIC>MOL_PROPERTY
E
SciTegic.value.DoubleValue
31.817

@<SCITEGIC>MOL_PROPERTY
-TS
SciTegic.value.DoubleValue
32.288

@<SCITEGIC>MOL_PROPERTY
U+W
SciTegic.value.DoubleValue
11.250

@<SCITEGIC>MOL_PROPERTY
U
SciTegic.value.DoubleValue
13.420

@<SCITEGIC>MOL_PROPERTY
W
SciTegic.value.DoubleValue
-2.170

@<SCITEGIC>MOL_PROPERTY
W(PB)
SciTegic.value.DoubleValue
-4.300

@<SCITEGIC>MOL_PROPERTY
W(SA)
SciTegic.value.DoubleValue
2.131

@<SCITEGIC>MOL_PROPERTY
Valence
SciTegic.value.DoubleValue
18.609

@<SCITEGIC>MOL_PROPERTY
Coulomb
SciTegic.value.DoubleValue
-8.052

@<SCITEGIC>MOL_PROPERTY
VdW
SciTegic.value.DoubleValue
2.863

@<SCITEGIC>MOL_PROPERTY
VdW6
SciTegic.value.DoubleValue
-12.524

@<SCITEGIC>MOL_PROPERTY
VdW12
SciTegic.value.DoubleValue
15.388

@<SCITEGIC>MOL_PROPERTY
Bond
SciTegic.value.DoubleValue
0.430

@<SCITEGIC>MOL_PROPERTY
Angle
SciTegic.value.DoubleValue
4.723

@<SCITEGIC>MOL_PROPERTY
Pdih
SciTegic.value.DoubleValue
13.455

@<SCITEGIC>MOL_PROPERTY
Idih
SciTegic.value.DoubleValue
0.000

@<SCITEGIC>MOL_PROPERTY
Tether
SciTegic.value.DoubleValue
0.000

@<TRIPOS>MOLECULE
guest-s17_vm2.mol2 : vm2 ligand conformer 69
          25          25           1
SMALL
USER_CHARGES
 
@<TRIPOS>ATOM
       1    C1      20.918725   19.539613   20.775624 C.3        1 MOL1        -0.1684
       2    H1      21.892595   19.866095   21.161864 H          1 MOL1         0.0833
       3    H2      21.020770   19.588037   19.682825 H          1 MOL1         0.0833
       4    C2      20.663023   18.062724   21.166922 C.3        1 MOL1        -0.1684
       5    H3      21.136682   17.441952   20.393989 H          1 MOL1         0.0833
       6    H4      19.592012   17.825281   21.114109 H          1 MOL1         0.0833
       7    C3      21.268782   17.624687   22.529545 C.3        1 MOL1        -0.1684
       8    H5      22.242176   18.102730   22.703164 H          1 MOL1         0.0833
       9    H6      21.483192   16.550018   22.450521 H          1 MOL1         0.0833
      10    C4      20.337912   17.807069   23.756493 C.3        1 MOL1        -0.1760
      11    H7      19.294102   17.642438   23.462127 H          1 MOL1         0.0833
      12    H8      20.560806   17.002201   24.469037 H          1 MOL1         0.0833
      13    C5      20.480391   19.138536   24.536376 C.3        1 MOL1         0.1219
      14    H9      21.444637   19.117691   25.064472 H          1 MOL1         0.0790
      15    C6      20.446811   20.434344   23.691502 C.3        1 MOL1        -0.1760
      16    H10     20.343121   21.291213   24.369751 H          1 MOL1         0.0833
      17    H11     21.425092   20.576894   23.220099 H          1 MOL1         0.0833
      18    C7      19.310364   20.493161   22.636749 C.3        1 MOL1        -0.1684
      19    H12     18.698833   21.385693   22.825890 H          1 MOL1         0.0833
      20    H13     18.619307   19.650701   22.758452 H          1 MOL1         0.0833
      21    C8      19.807447   20.547636   21.171920 C.3        1 MOL1        -0.1684
      22    H14     20.175381   21.561263   20.962342 H          1 MOL1         0.0833
      23    H15     18.942904   20.401108   20.510250 H          1 MOL1         0.0833
      24    O1      19.430546   19.195229   25.494869 O.3        1 MOL1        -0.5508
      25    H16     19.533793   20.041954   25.976027 H          1 MOL1         0.3780
@<TRIPOS>BOND
    1     1     2    1
    2     1     3    1
    3     1     4    1
    4     4     5    1
    5     4     6    1
    6     4     7    1
    7     7     8    1
    8     7     9    1
    9     7    10    1
   10    10    11    1
   11    10    12    1
   12    10    13    1
   13    13    14    1
   14    13    15    1
   15    15    16    1
   16    15    17    1
   17    15    18    1
   18    18    19    1
   19    18    20    1
   20     1    21    1
   21    18    21    1
   22    21    22    1
   23    21    23    1
   24    13    24    1
   25    24    25    1
@<TRIPOS>SUBSTRUCTURE
       1 MOL1            1 RESIDUE      1      MOL     
@<SCITEGIC>MOL_PROPERTY
VM2 Rank
SciTegic.value.IntegerValue
69

@<SCITEGIC>MOL_PROPERTY
Conf_Id
SciTegic.value.IntegerValue
1175

@<SCITEGIC>MOL_PROPERTY
Probability
SciTegic.value.DoubleValue
0.16

@<SCITEGIC>MOL_PROPERTY
Sum Probability
SciTegic.value.DoubleValue
98.19

@<SCITEGIC>MOL_PROPERTY
Delta G
SciTegic.value.DoubleValue
2.031

@<SCITEGIC>MOL_PROPERTY
G
SciTegic.value.DoubleValue
64.107

@<SCITEGIC>MOL_PROPERTY
E
SciTegic.value.DoubleValue
31.820

@<SCITEGIC>MOL_PROPERTY
-TS
SciTegic.value.DoubleValue
32.287

@<SCITEGIC>MOL_PROPERTY
U+W
SciTegic.value.DoubleValue
11.252

@<SCITEGIC>MOL_PROPERTY
U
SciTegic.value.DoubleValue
13.420

@<SCITEGIC>MOL_PROPERTY
W
SciTegic.value.DoubleValue
-2.167

@<SCITEGIC>MOL_PROPERTY
W(PB)
SciTegic.value.DoubleValue
-4.325

@<SCITEGIC>MOL_PROPERTY
W(SA)
SciTegic.value.DoubleValue
2.157

@<SCITEGIC>MOL_PROPERTY
Valence
SciTegic.value.DoubleValue
18.608

@<SCITEGIC>MOL_PROPERTY
Coulomb
SciTegic.value.DoubleValue
-8.052

@<SCITEGIC>MOL_PROPERTY
VdW
SciTegic.value.DoubleValue
2.863

@<SCITEGIC>MOL_PROPERTY
VdW6
SciTegic.value.DoubleValue
-12.525

@<SCITEGIC>MOL_PROPERTY
VdW12
SciTegic.value.DoubleValue
15.388

@<SCITEGIC>MOL_PROPERTY
Bond
SciTegic.value.DoubleValue
0.430

@<SCITEGIC>MOL_PROPERTY
Angle
SciTegic.value.DoubleValue
4.723

@<SCITEGIC>MOL_PROPERTY
Pdih
SciTegic.value.DoubleValue
13.455

@<SCITEGIC>MOL_PROPERTY
Idih
SciTegic.value.DoubleValue
0.000

@<SCITEGIC>MOL_PROPERTY
Tether
SciTegic.value.DoubleValue
0.000

@<TRIPOS>MOLECULE
guest-s17_vm2.mol2 : vm2 ligand conformer 70
          25          25           1
SMALL
USER_CHARGES
 
@<TRIPOS>ATOM
       1    C1      20.863077   19.421346   20.596230 C.3        1 MOL1        -0.1684
       2    H1      21.913857   19.487525   20.282764 H          1 MOL1         0.0833
       3    H2      20.270854   19.563829   19.681996 H          1 MOL1         0.0833
       4    C2      20.586631   17.989065   21.125706 C.3        1 MOL1        -0.1684
       5    H3      19.508841   17.782877   21.138024 H          1 MOL1         0.0833
       6    H4      20.996094   17.289605   20.383977 H          1 MOL1         0.0833
       7    C3      21.207679   17.641263   22.501204 C.3        1 MOL1        -0.1684
       8    H5      22.176995   18.141732   22.629324 H          1 MOL1         0.0833
       9    H6      21.435028   16.566426   22.485652 H          1 MOL1         0.0833
      10    C4      20.281596   17.888546   23.725604 C.3        1 MOL1        -0.1760
      11    H7      19.238346   17.652181   23.480168 H          1 MOL1         0.0833
      12    H8      20.575920   17.159693   24.493129 H          1 MOL1         0.0833
      13    C5      20.386237   19.301312   24.350284 C.3        1 MOL1         0.1219
      14    H9      21.398307   19.687759   24.171263 H          1 MOL1         0.0790
      15    C6      19.347029   20.331639   23.840100 C.3        1 MOL1        -0.1760
      16    H10     18.357564   20.082270   24.245247 H          1 MOL1         0.0833
      17    H11     19.610445   21.308470   24.266756 H          1 MOL1         0.0833
      18    C7      19.214703   20.489968   22.304502 C.3        1 MOL1        -0.1684
      19    H12     18.630494   21.398596   22.104873 H          1 MOL1         0.0833
      20    H13     18.606863   19.672500   21.899570 H          1 MOL1         0.0833
      21    C8      20.569840   20.596799   21.560498 C.3        1 MOL1        -0.1684
      22    H14     20.576053   21.525695   20.973996 H          1 MOL1         0.0833
      23    H15     21.400498   20.709498   22.266871 H          1 MOL1         0.0833
      24    O1      20.207207   19.183062   25.755872 O.3        1 MOL1        -0.5508
      25    H16     19.308416   18.818512   25.890967 H          1 MOL1         0.3780
@<TRIPOS>BOND
    1     1     2    1
    2     1     3    1
    3     1     4    1
    4     4     5    1
    5     4     6    1
    6     4     7    1
    7     7     8    1
    8     7     9    1
    9     7    10    1
   10    10    11    1
   11    10    12    1
   12    10    13    1
   13    13    14    1
   14    13    15    1
   15    15    16    1
   16    15    17    1
   17    15    18    1
   18    18    19    1
   19    18    20    1
   20     1    21    1
   21    18    21    1
   22    21    22    1
   23    21    23    1
   24    13    24    1
   25    24    25    1
@<TRIPOS>SUBSTRUCTURE
       1 MOL1            1 RESIDUE      1      MOL     
@<SCITEGIC>MOL_PROPERTY
VM2 Rank
SciTegic.value.IntegerValue
70

@<SCITEGIC>MOL_PROPERTY
Conf_Id
SciTegic.value.IntegerValue
1955

@<SCITEGIC>MOL_PROPERTY
Probability
SciTegic.value.DoubleValue
0.15

@<SCITEGIC>MOL_PROPERTY
Sum Probability
SciTegic.value.DoubleValue
98.34

@<SCITEGIC>MOL_PROPERTY
Delta G
SciTegic.value.DoubleValue
2.049

@<SCITEGIC>MOL_PROPERTY
G
SciTegic.value.DoubleValue
64.125

@<SCITEGIC>MOL_PROPERTY
E
SciTegic.value.DoubleValue
31.867

@<SCITEGIC>MOL_PROPERTY
-TS
SciTegic.value.DoubleValue
32.258

@<SCITEGIC>MOL_PROPERTY
U+W
SciTegic.value.DoubleValue
11.299

@<SCITEGIC>MOL_PROPERTY
U
SciTegic.value.DoubleValue
13.202

@<SCITEGIC>MOL_PROPERTY
W
SciTegic.value.DoubleValue
-1.903

@<SCITEGIC>MOL_PROPERTY
W(PB)
SciTegic.value.DoubleValue
-4.065

@<SCITEGIC>MOL_PROPERTY
W(SA)
SciTegic.value.DoubleValue
2.162

@<SCITEGIC>MOL_PROPERTY
Valence
SciTegic.value.DoubleValue
18.957

@<SCITEGIC>MOL_PROPERTY
Coulomb
SciTegic.value.DoubleValue
-8.753

@<SCITEGIC>MOL_PROPERTY
VdW
SciTegic.value.DoubleValue
2.998

@<SCITEGIC>MOL_PROPERTY
VdW6
SciTegic.value.DoubleValue
-12.294

@<SCITEGIC>MOL_PROPERTY
VdW12
SciTegic.value.DoubleValue
15.293

@<SCITEGIC>MOL_PROPERTY
Bond
SciTegic.value.DoubleValue
0.419

@<SCITEGIC>MOL_PROPERTY
Angle
SciTegic.value.DoubleValue
4.542

@<SCITEGIC>MOL_PROPERTY
Pdih
SciTegic.value.DoubleValue
13.996

@<SCITEGIC>MOL_PROPERTY
Idih
SciTegic.value.DoubleValue
0.000

@<SCITEGIC>MOL_PROPERTY
Tether
SciTegic.value.DoubleValue
0.000

@<TRIPOS>MOLECULE
guest-s17_vm2.mol2 : vm2 ligand conformer 71
          25          25           1
SMALL
USER_CHARGES
 
@<TRIPOS>ATOM
       1    C1      19.890609   19.003538   20.794458 C.3        1 MOL1        -0.1684
       2    H1      19.758812   19.028045   19.704073 H          1 MOL1         0.0833
       3    H2      18.939466   18.617704   21.182830 H          1 MOL1         0.0833
       4    C2      21.044600   18.009186   21.089394 C.3        1 MOL1        -0.1684
       5    H3      20.706758   17.002782   20.806901 H          1 MOL1         0.0833
       6    H4      21.889235   18.237733   20.425249 H          1 MOL1         0.0833
       7    C3      21.569814   17.964248   22.544811 C.3        1 MOL1        -0.1684
       8    H5      22.242179   18.812348   22.718343 H          1 MOL1         0.0833
       9    H6      22.207194   17.075709   22.649500 H          1 MOL1         0.0833
      10    C4      20.454558   17.906468   23.621690 C.3        1 MOL1        -0.1760
      11    H7      19.472230   17.748052   23.162748 H          1 MOL1         0.0833
      12    H8      20.619722   17.019843   24.247291 H          1 MOL1         0.0833
      13    C5      20.398945   19.135133   24.558467 C.3        1 MOL1         0.1219
      14    H9      21.250506   19.063324   25.250434 H          1 MOL1         0.0790
      15    C6      20.483509   20.526224   23.876701 C.3        1 MOL1        -0.1760
      16    H10     20.272272   21.280188   24.646244 H          1 MOL1         0.0833
      17    H11     21.515630   20.732621   23.569358 H          1 MOL1         0.0833
      18    C7      19.522119   20.776738   22.685272 C.3        1 MOL1        -0.1684
      19    H12     19.277721   21.847731   22.692254 H          1 MOL1         0.0833
      20    H13     18.565724   20.259532   22.841550 H          1 MOL1         0.0833
      21    C8      20.109006   20.457191   21.282353 C.3        1 MOL1        -0.1684
      22    H14     21.170179   20.733701   21.222842 H          1 MOL1         0.0833
      23    H15     19.596639   21.114177   20.566164 H          1 MOL1         0.0833
      24    O1      19.190840   19.064274   25.306853 O.3        1 MOL1        -0.5508
      25    H16     19.176151   19.848299   25.893426 H          1 MOL1         0.3780
@<TRIPOS>BOND
    1     1     2    1
    2     1     3    1
    3     1     4    1
    4     4     5    1
    5     4     6    1
    6     4     7    1
    7     7     8    1
    8     7     9    1
    9     7    10    1
   10    10    11    1
   11    10    12    1
   12    10    13    1
   13    13    14    1
   14    13    15    1
   15    15    16    1
   16    15    17    1
   17    15    18    1
   18    18    19    1
   19    18    20    1
   20     1    21    1
   21    18    21    1
   22    21    22    1
   23    21    23    1
   24    13    24    1
   25    24    25    1
@<TRIPOS>SUBSTRUCTURE
       1 MOL1            1 RESIDUE      1      MOL     
@<SCITEGIC>MOL_PROPERTY
VM2 Rank
SciTegic.value.IntegerValue
71

@<SCITEGIC>MOL_PROPERTY
Conf_Id
SciTegic.value.IntegerValue
397

@<SCITEGIC>MOL_PROPERTY
Probability
SciTegic.value.DoubleValue
0.14

@<SCITEGIC>MOL_PROPERTY
Sum Probability
SciTegic.value.DoubleValue
98.48

@<SCITEGIC>MOL_PROPERTY
Delta G
SciTegic.value.DoubleValue
2.110

@<SCITEGIC>MOL_PROPERTY
G
SciTegic.value.DoubleValue
64.186

@<SCITEGIC>MOL_PROPERTY
E
SciTegic.value.DoubleValue
31.920

@<SCITEGIC>MOL_PROPERTY
-TS
SciTegic.value.DoubleValue
32.266

@<SCITEGIC>MOL_PROPERTY
U+W
SciTegic.value.DoubleValue
11.352

@<SCITEGIC>MOL_PROPERTY
U
SciTegic.value.DoubleValue
13.643

@<SCITEGIC>MOL_PROPERTY
W
SciTegic.value.DoubleValue
-2.290

@<SCITEGIC>MOL_PROPERTY
W(PB)
SciTegic.value.DoubleValue
-4.412

@<SCITEGIC>MOL_PROPERTY
W(SA)
SciTegic.value.DoubleValue
2.122

@<SCITEGIC>MOL_PROPERTY
Valence
SciTegic.value.DoubleValue
18.609

@<SCITEGIC>MOL_PROPERTY
Coulomb
SciTegic.value.DoubleValue
-7.808

@<SCITEGIC>MOL_PROPERTY
VdW
SciTegic.value.DoubleValue
2.842

@<SCITEGIC>MOL_PROPERTY
VdW6
SciTegic.value.DoubleValue
-12.553

@<SCITEGIC>MOL_PROPERTY
VdW12
SciTegic.value.DoubleValue
15.395

@<SCITEGIC>MOL_PROPERTY
Bond
SciTegic.value.DoubleValue
0.434

@<SCITEGIC>MOL_PROPERTY
Angle
SciTegic.value.DoubleValue
4.744

@<SCITEGIC>MOL_PROPERTY
Pdih
SciTegic.value.DoubleValue
13.432

@<SCITEGIC>MOL_PROPERTY
Idih
SciTegic.value.DoubleValue
0.000

@<SCITEGIC>MOL_PROPERTY
Tether
SciTegic.value.DoubleValue
0.000

@<TRIPOS>MOLECULE
guest-s17_vm2.mol2 : vm2 ligand conformer 72
          25          25           1
SMALL
USER_CHARGES
 
@<TRIPOS>ATOM
       1    C1      20.896641   19.356237   21.001051 C.3        1 MOL1        -0.1684
       2    H1      21.869351   19.561497   21.462075 H          1 MOL1         0.0833
       3    H2      21.112516   19.263363   19.927934 H          1 MOL1         0.0833
       4    C2      20.310263   18.014366   21.505246 C.3        1 MOL1        -0.1684
       5    H3      19.243301   18.114156   21.733294 H          1 MOL1         0.0833
       6    H4      20.347985   17.286940   20.682771 H          1 MOL1         0.0833
       7    C3      21.063026   17.401711   22.712583 C.3        1 MOL1        -0.1684
       8    H5      21.978133   16.923607   22.337266 H          1 MOL1         0.0833
       9    H6      20.456568   16.584266   23.126178 H          1 MOL1         0.0833
      10    C4      21.476903   18.365879   23.862718 C.3        1 MOL1        -0.1760
      11    H7      21.894426   17.745027   24.666106 H          1 MOL1         0.0833
      12    H8      22.313757   18.998864   23.544572 H          1 MOL1         0.0833
      13    C5      20.381158   19.256181   24.498331 C.3        1 MOL1         0.1219
      14    H9      20.732796   19.482127   25.515404 H          1 MOL1         0.0790
      15    C6      20.166957   20.637810   23.818025 C.3        1 MOL1        -0.1760
      16    H10     19.712535   21.284134   24.580319 H          1 MOL1         0.0833
      17    H11     21.136747   21.100494   23.594412 H          1 MOL1         0.0833
      18    C7      19.248393   20.701642   22.566054 C.3        1 MOL1        -0.1684
      19    H12     18.752528   21.681915   22.570831 H          1 MOL1         0.0833
      20    H13     18.424777   19.982623   22.645219 H          1 MOL1         0.0833
      21    C8      19.959257   20.572393   21.193543 C.3        1 MOL1        -0.1684
      22    H14     20.537404   21.487025   21.003856 H          1 MOL1         0.0833
      23    H15     19.185694   20.543001   20.414031 H          1 MOL1         0.0833
      24    O1      19.161402   18.536781   24.602449 O.3        1 MOL1        -0.5508
      25    H16     18.976516   18.235414   23.691118 H          1 MOL1         0.3780
@<TRIPOS>BOND
    1     1     2    1
    2     1     3    1
    3     1     4    1
    4     4     5    1
    5     4     6    1
    6     4     7    1
    7     7     8    1
    8     7     9    1
    9     7    10    1
   10    10    11    1
   11    10    12    1
   12    10    13    1
   13    13    14    1
   14    13    15    1
   15    15    16    1
   16    15    17    1
   17    15    18    1
   18    18    19    1
   19    18    20    1
   20     1    21    1
   21    18    21    1
   22    21    22    1
   23    21    23    1
   24    13    24    1
   25    24    25    1
@<TRIPOS>SUBSTRUCTURE
       1 MOL1            1 RESIDUE      1      MOL     
@<SCITEGIC>MOL_PROPERTY
VM2 Rank
SciTegic.value.IntegerValue
72

@<SCITEGIC>MOL_PROPERTY
Conf_Id
SciTegic.value.IntegerValue
878

@<SCITEGIC>MOL_PROPERTY
Probability
SciTegic.value.DoubleValue
0.13

@<SCITEGIC>MOL_PROPERTY
Sum Probability
SciTegic.value.DoubleValue
98.61

@<SCITEGIC>MOL_PROPERTY
Delta G
SciTegic.value.DoubleValue
2.116

@<SCITEGIC>MOL_PROPERTY
G
SciTegic.value.DoubleValue
64.192

@<SCITEGIC>MOL_PROPERTY
E
SciTegic.value.DoubleValue
31.539

@<SCITEGIC>MOL_PROPERTY
-TS
SciTegic.value.DoubleValue
32.652

@<SCITEGIC>MOL_PROPERTY
U+W
SciTegic.value.DoubleValue
10.972

@<SCITEGIC>MOL_PROPERTY
U
SciTegic.value.DoubleValue
12.265

@<SCITEGIC>MOL_PROPERTY
W
SciTegic.value.DoubleValue
-1.293

@<SCITEGIC>MOL_PROPERTY
W(PB)
SciTegic.value.DoubleValue
-3.431

@<SCITEGIC>MOL_PROPERTY
W(SA)
SciTegic.value.DoubleValue
2.138

@<SCITEGIC>MOL_PROPERTY
Valence
SciTegic.value.DoubleValue
19.257

@<SCITEGIC>MOL_PROPERTY
Coulomb
SciTegic.value.DoubleValue
-9.838

@<SCITEGIC>MOL_PROPERTY
VdW
SciTegic.value.DoubleValue
2.845

@<SCITEGIC>MOL_PROPERTY
VdW6
SciTegic.value.DoubleValue
-13.716

@<SCITEGIC>MOL_PROPERTY
VdW12
SciTegic.value.DoubleValue
16.562

@<SCITEGIC>MOL_PROPERTY
Bond
SciTegic.value.DoubleValue
0.508

@<SCITEGIC>MOL_PROPERTY
Angle
SciTegic.value.DoubleValue
6.449

@<SCITEGIC>MOL_PROPERTY
Pdih
SciTegic.value.DoubleValue
12.301

@<SCITEGIC>MOL_PROPERTY
Idih
SciTegic.value.DoubleValue
0.000

@<SCITEGIC>MOL_PROPERTY
Tether
SciTegic.value.DoubleValue
0.000

@<TRIPOS>MOLECULE
guest-s17_vm2.mol2 : vm2 ligand conformer 73
          25          25           1
SMALL
USER_CHARGES
 
@<TRIPOS>ATOM
       1    C1      20.947152   19.395749   20.769088 C.3        1 MOL1        -0.1684
       2    H1      21.869410   19.853527   21.148638 H          1 MOL1         0.0833
       3    H2      21.046941   19.430009   19.675546 H          1 MOL1         0.0833
       4    C2      20.874149   17.898915   21.170741 C.3        1 MOL1        -0.1684
       5    H3      20.148883   17.391327   20.520329 H          1 MOL1         0.0833
       6    H4      21.846787   17.438689   20.949607 H          1 MOL1         0.0833
       7    C3      20.503738   17.591751   22.641892 C.3        1 MOL1        -0.1684
       8    H5      20.706564   16.529216   22.832137 H          1 MOL1         0.0833
       9    H6      19.421311   17.697069   22.779543 H          1 MOL1         0.0833
      10    C4      21.280014   18.439781   23.684103 C.3        1 MOL1        -0.1760
      11    H7      21.802613   17.760534   24.370475 H          1 MOL1         0.0833
      12    H8      22.079033   19.014993   23.204392 H          1 MOL1         0.0833
      13    C5      20.405147   19.395514   24.529899 C.3        1 MOL1         0.1219
      14    H9      21.085243   20.099173   25.031318 H          1 MOL1         0.0790
      15    C6      19.345953   20.224186   23.759299 C.3        1 MOL1        -0.1760
      16    H10     18.492095   19.595694   23.477374 H          1 MOL1         0.0833
      17    H11     18.938538   20.956363   24.468618 H          1 MOL1         0.0833
      18    C7      19.855973   21.007032   22.521818 C.3        1 MOL1        -0.1684
      19    H12     20.882666   21.363204   22.680921 H          1 MOL1         0.0833
      20    H13     19.242376   21.915193   22.444670 H          1 MOL1         0.0833
      21    C8      19.725171   20.261125   21.164993 C.3        1 MOL1        -0.1684
      22    H14     19.614253   21.030283   20.388306 H          1 MOL1         0.0833
      23    H15     18.799726   19.671112   21.123962 H          1 MOL1         0.0833
      24    O1      19.726702   18.628947   25.518169 O.3        1 MOL1        -0.5508
      25    H16     19.222599   19.261989   26.070121 H          1 MOL1         0.3780
@<TRIPOS>BOND
    1     1     2    1
    2     1     3    1
    3     1     4    1
    4     4     5    1
    5     4     6    1
    6     4     7    1
    7     7     8    1
    8     7     9    1
    9     7    10    1
   10    10    11    1
   11    10    12    1
   12    10    13    1
   13    13    14    1
   14    13    15    1
   15    15    16    1
   16    15    17    1
   17    15    18    1
   18    18    19    1
   19    18    20    1
   20     1    21    1
   21    18    21    1
   22    21    22    1
   23    21    23    1
   24    13    24    1
   25    24    25    1
@<TRIPOS>SUBSTRUCTURE
       1 MOL1            1 RESIDUE      1      MOL     
@<SCITEGIC>MOL_PROPERTY
VM2 Rank
SciTegic.value.IntegerValue
73

@<SCITEGIC>MOL_PROPERTY
Conf_Id
SciTegic.value.IntegerValue
928

@<SCITEGIC>MOL_PROPERTY
Probability
SciTegic.value.DoubleValue
0.13

@<SCITEGIC>MOL_PROPERTY
Sum Probability
SciTegic.value.DoubleValue
98.74

@<SCITEGIC>MOL_PROPERTY
Delta G
SciTegic.value.DoubleValue
2.132

@<SCITEGIC>MOL_PROPERTY
G
SciTegic.value.DoubleValue
64.207

@<SCITEGIC>MOL_PROPERTY
E
SciTegic.value.DoubleValue
31.908

@<SCITEGIC>MOL_PROPERTY
-TS
SciTegic.value.DoubleValue
32.299

@<SCITEGIC>MOL_PROPERTY
U+W
SciTegic.value.DoubleValue
11.341

@<SCITEGIC>MOL_PROPERTY
U
SciTegic.value.DoubleValue
13.665

@<SCITEGIC>MOL_PROPERTY
W
SciTegic.value.DoubleValue
-2.325

@<SCITEGIC>MOL_PROPERTY
W(PB)
SciTegic.value.DoubleValue
-4.460

@<SCITEGIC>MOL_PROPERTY
W(SA)
SciTegic.value.DoubleValue
2.136

@<SCITEGIC>MOL_PROPERTY
Valence
SciTegic.value.DoubleValue
18.607

@<SCITEGIC>MOL_PROPERTY
Coulomb
SciTegic.value.DoubleValue
-7.778

@<SCITEGIC>MOL_PROPERTY
VdW
SciTegic.value.DoubleValue
2.836

@<SCITEGIC>MOL_PROPERTY
VdW6
SciTegic.value.DoubleValue
-12.472

@<SCITEGIC>MOL_PROPERTY
VdW12
SciTegic.value.DoubleValue
15.308

@<SCITEGIC>MOL_PROPERTY
Bond
SciTegic.value.DoubleValue
0.426

@<SCITEGIC>MOL_PROPERTY
Angle
SciTegic.value.DoubleValue
4.743

@<SCITEGIC>MOL_PROPERTY
Pdih
SciTegic.value.DoubleValue
13.438

@<SCITEGIC>MOL_PROPERTY
Idih
SciTegic.value.DoubleValue
0.000

@<SCITEGIC>MOL_PROPERTY
Tether
SciTegic.value.DoubleValue
0.000

@<TRIPOS>MOLECULE
guest-s17_vm2.mol2 : vm2 ligand conformer 74
          25          25           1
SMALL
USER_CHARGES
 
@<TRIPOS>ATOM
       1    C1      20.244859   19.192696   20.606537 C.3        1 MOL1        -0.1684
       2    H1      20.632456   19.333266   19.588286 H          1 MOL1         0.0833
       3    H2      19.296348   18.651053   20.490107 H          1 MOL1         0.0833
       4    C2      21.257329   18.325006   21.389800 C.3        1 MOL1        -0.1684
       5    H3      21.666405   17.582791   20.690671 H          1 MOL1         0.0833
       6    H4      22.115663   18.933731   21.703218 H          1 MOL1         0.0833
       7    C3      20.641826   17.551354   22.586091 C.3        1 MOL1        -0.1684
       8    H5      20.906620   16.492027   22.466484 H          1 MOL1         0.0833
       9    H6      19.544388   17.579133   22.563185 H          1 MOL1         0.0833
      10    C4      21.162079   18.006217   23.972901 C.3        1 MOL1        -0.1760
      11    H7      21.062649   17.162270   24.668135 H          1 MOL1         0.0833
      12    H8      22.238765   18.211018   23.916572 H          1 MOL1         0.0833
      13    C5      20.442836   19.214991   24.616868 C.3        1 MOL1         0.1219
      14    H9      21.002311   19.446380   25.534840 H          1 MOL1         0.0790
      15    C6      20.434730   20.510603   23.767998 C.3        1 MOL1        -0.1760
      16    H10     20.251029   21.345470   24.456721 H          1 MOL1         0.0833
      17    H11     21.443635   20.687860   23.374827 H          1 MOL1         0.0833
      18    C7      19.379016   20.598822   22.626973 C.3        1 MOL1        -0.1684
      19    H12     18.837770   21.546407   22.752659 H          1 MOL1         0.0833
      20    H13     18.613975   19.816464   22.710336 H          1 MOL1         0.0833
      21    C8      19.982509   20.595859   21.202630 C.3        1 MOL1        -0.1684
      22    H14     19.278969   21.110893   20.534315 H          1 MOL1         0.0833
      23    H15     20.903476   21.193868   21.178737 H          1 MOL1         0.0833
      24    O1      19.118817   18.847452   24.990202 O.3        1 MOL1        -0.5508
      25    H16     18.685304   19.664211   25.311356 H          1 MOL1         0.3780
@<TRIPOS>BOND
    1     1     2    1
    2     1     3    1
    3     1     4    1
    4     4     5    1
    5     4     6    1
    6     4     7    1
    7     7     8    1
    8     7     9    1
    9     7    10    1
   10    10    11    1
   11    10    12    1
   12    10    13    1
   13    13    14    1
   14    13    15    1
   15    15    16    1
   16    15    17    1
   17    15    18    1
   18    18    19    1
   19    18    20    1
   20     1    21    1
   21    18    21    1
   22    21    22    1
   23    21    23    1
   24    13    24    1
   25    24    25    1
@<TRIPOS>SUBSTRUCTURE
       1 MOL1            1 RESIDUE      1      MOL     
@<SCITEGIC>MOL_PROPERTY
VM2 Rank
SciTegic.value.IntegerValue
74

@<SCITEGIC>MOL_PROPERTY
Conf_Id
SciTegic.value.IntegerValue
1667

@<SCITEGIC>MOL_PROPERTY
Probability
SciTegic.value.DoubleValue
0.13

@<SCITEGIC>MOL_PROPERTY
Sum Probability
SciTegic.value.DoubleValue
98.87

@<SCITEGIC>MOL_PROPERTY
Delta G
SciTegic.value.DoubleValue
2.140

@<SCITEGIC>MOL_PROPERTY
G
SciTegic.value.DoubleValue
64.216

@<SCITEGIC>MOL_PROPERTY
E
SciTegic.value.DoubleValue
32.113

@<SCITEGIC>MOL_PROPERTY
-TS
SciTegic.value.DoubleValue
32.103

@<SCITEGIC>MOL_PROPERTY
U+W
SciTegic.value.DoubleValue
11.545

@<SCITEGIC>MOL_PROPERTY
U
SciTegic.value.DoubleValue
13.660

@<SCITEGIC>MOL_PROPERTY
W
SciTegic.value.DoubleValue
-2.115

@<SCITEGIC>MOL_PROPERTY
W(PB)
SciTegic.value.DoubleValue
-4.226

@<SCITEGIC>MOL_PROPERTY
W(SA)
SciTegic.value.DoubleValue
2.111

@<SCITEGIC>MOL_PROPERTY
Valence
SciTegic.value.DoubleValue
18.998

@<SCITEGIC>MOL_PROPERTY
Coulomb
SciTegic.value.DoubleValue
-7.829

@<SCITEGIC>MOL_PROPERTY
VdW
SciTegic.value.DoubleValue
2.491

@<SCITEGIC>MOL_PROPERTY
VdW6
SciTegic.value.DoubleValue
-12.613

@<SCITEGIC>MOL_PROPERTY
VdW12
SciTegic.value.DoubleValue
15.105

@<SCITEGIC>MOL_PROPERTY
Bond
SciTegic.value.DoubleValue
0.387

@<SCITEGIC>MOL_PROPERTY
Angle
SciTegic.value.DoubleValue
4.271

@<SCITEGIC>MOL_PROPERTY
Pdih
SciTegic.value.DoubleValue
14.339

@<SCITEGIC>MOL_PROPERTY
Idih
SciTegic.value.DoubleValue
0.000

@<SCITEGIC>MOL_PROPERTY
Tether
SciTegic.value.DoubleValue
0.000

@<TRIPOS>MOLECULE
guest-s17_vm2.mol2 : vm2 ligand conformer 75
          25          25           1
SMALL
USER_CHARGES
 
@<TRIPOS>ATOM
       1    C1      19.850874   19.051695   20.798524 C.3        1 MOL1        -0.1684
       2    H1      18.908122   18.654700   21.195995 H          1 MOL1         0.0833
       3    H2      19.766428   18.936413   19.709262 H          1 MOL1         0.0833
       4    C2      21.036044   18.179146   21.281096 C.3        1 MOL1        -0.1684
       5    H3      21.131852   17.348995   20.567830 H          1 MOL1         0.0833
       6    H4      21.982016   18.732692   21.211740 H          1 MOL1         0.0833
       7    C3      20.857281   17.544657   22.688289 C.3        1 MOL1        -0.1684
       8    H5      21.440897   16.613983   22.694886 H          1 MOL1         0.0833
       9    H6      19.816228   17.235862   22.854037 H          1 MOL1         0.0833
      10    C4      21.370032   18.406391   23.871941 C.3        1 MOL1        -0.1760
      11    H7      21.759104   17.726936   24.641515 H          1 MOL1         0.0833
      12    H8      22.243948   18.988009   23.555197 H          1 MOL1         0.0833
      13    C5      20.332818   19.334323   24.557667 C.3        1 MOL1         0.1219
      14    H9      20.890180   19.989735   25.242438 H          1 MOL1         0.0790
      15    C6      19.497004   20.239137   23.623327 C.3        1 MOL1        -0.1760
      16    H10     18.686263   19.655352   23.173234 H          1 MOL1         0.0833
      17    H11     18.992460   20.986151   24.249560 H          1 MOL1         0.0833
      18    C7      20.318841   20.981258   22.536752 C.3        1 MOL1        -0.1684
      19    H12     20.143100   22.060877   22.638002 H          1 MOL1         0.0833
      20    H13     21.395158   20.856693   22.702532 H          1 MOL1         0.0833
      21    C8      19.967617   20.571977   21.085807 C.3        1 MOL1        -0.1684
      22    H14     20.721786   21.003837   20.413903 H          1 MOL1         0.0833
      23    H15     19.015439   21.044486   20.808533 H          1 MOL1         0.0833
      24    O1      19.433490   18.534414   25.316596 O.3        1 MOL1        -0.5508
      25    H16     19.981471   17.971577   25.901326 H          1 MOL1         0.3780
@<TRIPOS>BOND
    1     1     2    1
    2     1     3    1
    3     1     4    1
    4     4     5    1
    5     4     6    1
    6     4     7    1
    7     7     8    1
    8     7     9    1
    9     7    10    1
   10    10    11    1
   11    10    12    1
   12    10    13    1
   13    13    14    1
   14    13    15    1
   15    15    16    1
   16    15    17    1
   17    15    18    1
   18    18    19    1
   19    18    20    1
   20     1    21    1
   21    18    21    1
   22    21    22    1
   23    21    23    1
   24    13    24    1
   25    24    25    1
@<TRIPOS>SUBSTRUCTURE
       1 MOL1            1 RESIDUE      1      MOL     
@<SCITEGIC>MOL_PROPERTY
VM2 Rank
SciTegic.value.IntegerValue
75

@<SCITEGIC>MOL_PROPERTY
Conf_Id
SciTegic.value.IntegerValue
641

@<SCITEGIC>MOL_PROPERTY
Probability
SciTegic.value.DoubleValue
0.13

@<SCITEGIC>MOL_PROPERTY
Sum Probability
SciTegic.value.DoubleValue
99.00

@<SCITEGIC>MOL_PROPERTY
Delta G
SciTegic.value.DoubleValue
2.160

@<SCITEGIC>MOL_PROPERTY
G
SciTegic.value.DoubleValue
64.235

@<SCITEGIC>MOL_PROPERTY
E
SciTegic.value.DoubleValue
31.971

@<SCITEGIC>MOL_PROPERTY
-TS
SciTegic.value.DoubleValue
32.264

@<SCITEGIC>MOL_PROPERTY
U+W
SciTegic.value.DoubleValue
11.404

@<SCITEGIC>MOL_PROPERTY
U
SciTegic.value.DoubleValue
13.643

@<SCITEGIC>MOL_PROPERTY
W
SciTegic.value.DoubleValue
-2.239

@<SCITEGIC>MOL_PROPERTY
W(PB)
SciTegic.value.DoubleValue
-4.379

@<SCITEGIC>MOL_PROPERTY
W(SA)
SciTegic.value.DoubleValue
2.140

@<SCITEGIC>MOL_PROPERTY
Valence
SciTegic.value.DoubleValue
18.609

@<SCITEGIC>MOL_PROPERTY
Coulomb
SciTegic.value.DoubleValue
-7.808

@<SCITEGIC>MOL_PROPERTY
VdW
SciTegic.value.DoubleValue
2.842

@<SCITEGIC>MOL_PROPERTY
VdW6
SciTegic.value.DoubleValue
-12.553

@<SCITEGIC>MOL_PROPERTY
VdW12
SciTegic.value.DoubleValue
15.394

@<SCITEGIC>MOL_PROPERTY
Bond
SciTegic.value.DoubleValue
0.434

@<SCITEGIC>MOL_PROPERTY
Angle
SciTegic.value.DoubleValue
4.744

@<SCITEGIC>MOL_PROPERTY
Pdih
SciTegic.value.DoubleValue
13.432

@<SCITEGIC>MOL_PROPERTY
Idih
SciTegic.value.DoubleValue
0.000

@<SCITEGIC>MOL_PROPERTY
Tether
SciTegic.value.DoubleValue
0.000

@<TRIPOS>MOLECULE
guest-s17_vm2.mol2 : vm2 ligand conformer 76
          25          25           1
SMALL
USER_CHARGES
 
@<TRIPOS>ATOM
       1    C1      20.924817   19.541275   20.780629 C.3        1 MOL1        -0.1684
       2    H1      21.894311   19.868031   21.177481 H          1 MOL1         0.0833
       3    H2      21.037101   19.593347   19.689004 H          1 MOL1         0.0833
       4    C2      20.666938   18.063164   21.164732 C.3        1 MOL1        -0.1684
       5    H3      19.596239   17.825851   21.105283 H          1 MOL1         0.0833
       6    H4      21.145031   17.445066   20.392378 H          1 MOL1         0.0833
       7    C3      21.265200   17.621344   22.529038 C.3        1 MOL1        -0.1684
       8    H5      22.240162   18.094953   22.706272 H          1 MOL1         0.0833
       9    H6      21.475130   16.545781   22.449639 H          1 MOL1         0.0833
      10    C4      20.331199   17.807521   23.752682 C.3        1 MOL1        -0.1760
      11    H7      19.287736   17.649325   23.453155 H          1 MOL1         0.0833
      12    H8      20.549745   16.998082   24.461378 H          1 MOL1         0.0833
      13    C5      20.481313   19.138447   24.532753 C.3        1 MOL1         0.1219
      14    H9      21.451627   19.119469   25.049683 H          1 MOL1         0.0790
      15    C6      20.437171   20.437270   23.692929 C.3        1 MOL1        -0.1760
      16    H10     20.315050   21.283457   24.381877 H          1 MOL1         0.0833
      17    H11     21.416403   20.598364   23.229704 H          1 MOL1         0.0833
      18    C7      19.305458   20.493095   22.632707 C.3        1 MOL1        -0.1684
      19    H12     18.694248   21.386663   22.817825 H          1 MOL1         0.0833
      20    H13     18.612733   19.652329   22.754895 H          1 MOL1         0.0833
      21    C8      19.808082   20.545621   21.169677 C.3        1 MOL1        -0.1684
      22    H14     20.173512   21.560059   20.959651 H          1 MOL1         0.0833
      23    H15     18.946920   20.394822   20.504582 H          1 MOL1         0.0833
      24    O1      19.443822   19.195263   25.504853 O.3        1 MOL1        -0.5508
      25    H16     19.526558   18.388396   26.054068 H          1 MOL1         0.3780
@<TRIPOS>BOND
    1     1     2    1
    2     1     3    1
    3     1     4    1
    4     4     5    1
    5     4     6    1
    6     4     7    1
    7     7     8    1
    8     7     9    1
    9     7    10    1
   10    10    11    1
   11    10    12    1
   12    10    13    1
   13    13    14    1
   14    13    15    1
   15    15    16    1
   16    15    17    1
   17    15    18    1
   18    18    19    1
   19    18    20    1
   20     1    21    1
   21    18    21    1
   22    21    22    1
   23    21    23    1
   24    13    24    1
   25    24    25    1
@<TRIPOS>SUBSTRUCTURE
       1 MOL1            1 RESIDUE      1      MOL     
@<SCITEGIC>MOL_PROPERTY
VM2 Rank
SciTegic.value.IntegerValue
76

@<SCITEGIC>MOL_PROPERTY
Conf_Id
SciTegic.value.IntegerValue
219

@<SCITEGIC>MOL_PROPERTY
Probability
SciTegic.value.DoubleValue
0.12

@<SCITEGIC>MOL_PROPERTY
Sum Probability
SciTegic.value.DoubleValue
99.12

@<SCITEGIC>MOL_PROPERTY
Delta G
SciTegic.value.DoubleValue
2.169

@<SCITEGIC>MOL_PROPERTY
G
SciTegic.value.DoubleValue
64.245

@<SCITEGIC>MOL_PROPERTY
E
SciTegic.value.DoubleValue
31.946

@<SCITEGIC>MOL_PROPERTY
-TS
SciTegic.value.DoubleValue
32.299

@<SCITEGIC>MOL_PROPERTY
U+W
SciTegic.value.DoubleValue
11.378

@<SCITEGIC>MOL_PROPERTY
U
SciTegic.value.DoubleValue
13.665

@<SCITEGIC>MOL_PROPERTY
W
SciTegic.value.DoubleValue
-2.287

@<SCITEGIC>MOL_PROPERTY
W(PB)
SciTegic.value.DoubleValue
-4.435

@<SCITEGIC>MOL_PROPERTY
W(SA)
SciTegic.value.DoubleValue
2.148

@<SCITEGIC>MOL_PROPERTY
Valence
SciTegic.value.DoubleValue
18.607

@<SCITEGIC>MOL_PROPERTY
Coulomb
SciTegic.value.DoubleValue
-7.778

@<SCITEGIC>MOL_PROPERTY
VdW
SciTegic.value.DoubleValue
2.836

@<SCITEGIC>MOL_PROPERTY
VdW6
SciTegic.value.DoubleValue
-12.471

@<SCITEGIC>MOL_PROPERTY
VdW12
SciTegic.value.DoubleValue
15.307

@<SCITEGIC>MOL_PROPERTY
Bond
SciTegic.value.DoubleValue
0.426

@<SCITEGIC>MOL_PROPERTY
Angle
SciTegic.value.DoubleValue
4.743

@<SCITEGIC>MOL_PROPERTY
Pdih
SciTegic.value.DoubleValue
13.438

@<SCITEGIC>MOL_PROPERTY
Idih
SciTegic.value.DoubleValue
0.000

@<SCITEGIC>MOL_PROPERTY
Tether
SciTegic.value.DoubleValue
0.000

@<TRIPOS>MOLECULE
guest-s17_vm2.mol2 : vm2 ligand conformer 77
          25          25           1
SMALL
USER_CHARGES
 
@<TRIPOS>ATOM
       1    C1      20.239528   19.146877   20.607410 C.3        1 MOL1        -0.1684
       2    H1      19.198794   18.811898   20.501249 H          1 MOL1         0.0833
       3    H2      20.599048   19.324883   19.584725 H          1 MOL1         0.0833
       4    C2      21.100508   18.013212   21.212830 C.3        1 MOL1        -0.1684
       5    H3      21.001301   17.138222   20.556003 H          1 MOL1         0.0833
       6    H4      22.163378   18.288080   21.179377 H          1 MOL1         0.0833
       7    C3      20.703276   17.584104   22.644973 C.3        1 MOL1        -0.1684
       8    H5      21.037195   16.546584   22.781763 H          1 MOL1         0.0833
       9    H6      19.610112   17.549493   22.735057 H          1 MOL1         0.0833
      10    C4      21.357823   18.436395   23.771656 C.3        1 MOL1        -0.1760
      11    H7      21.853311   17.745692   24.466285 H          1 MOL1         0.0833
      12    H8      22.167732   19.055596   23.366033 H          1 MOL1         0.0833
      13    C5      20.412781   19.328157   24.614812 C.3        1 MOL1         0.1219
      14    H9      20.966530   19.595849   25.526365 H          1 MOL1         0.0790
      15    C6      20.003637   20.666861   23.956326 C.3        1 MOL1        -0.1760
      16    H10     19.318215   21.172389   24.649236 H          1 MOL1         0.0833
      17    H11     20.881621   21.321584   23.886688 H          1 MOL1         0.0833
      18    C7      19.308799   20.573141   22.574578 C.3        1 MOL1        -0.1684
      19    H12     18.587858   19.744988   22.566237 H          1 MOL1         0.0833
      20    H13     18.705864   21.482424   22.447033 H          1 MOL1         0.0833
      21    C8      20.288087   20.489317   21.373553 C.3        1 MOL1        -0.1684
      22    H14     21.318523   20.714963   21.678185 H          1 MOL1         0.0833
      23    H15     20.013026   21.283444   20.665941 H          1 MOL1         0.0833
      24    O1      19.249562   18.604936   25.003862 O.3        1 MOL1        -0.5508
      25    H16     19.560803   17.737570   25.333979 H          1 MOL1         0.3780
@<TRIPOS>BOND
    1     1     2    1
    2     1     3    1
    3     1     4    1
    4     4     5    1
    5     4     6    1
    6     4     7    1
    7     7     8    1
    8     7     9    1
    9     7    10    1
   10    10    11    1
   11    10    12    1
   12    10    13    1
   13    13    14    1
   14    13    15    1
   15    15    16    1
   16    15    17    1
   17    15    18    1
   18    18    19    1
   19    18    20    1
   20     1    21    1
   21    18    21    1
   22    21    22    1
   23    21    23    1
   24    13    24    1
   25    24    25    1
@<TRIPOS>SUBSTRUCTURE
       1 MOL1            1 RESIDUE      1      MOL     
@<SCITEGIC>MOL_PROPERTY
VM2 Rank
SciTegic.value.IntegerValue
77

@<SCITEGIC>MOL_PROPERTY
Conf_Id
SciTegic.value.IntegerValue
84

@<SCITEGIC>MOL_PROPERTY
Probability
SciTegic.value.DoubleValue
0.12

@<SCITEGIC>MOL_PROPERTY
Sum Probability
SciTegic.value.DoubleValue
99.24

@<SCITEGIC>MOL_PROPERTY
Delta G
SciTegic.value.DoubleValue
2.178

@<SCITEGIC>MOL_PROPERTY
G
SciTegic.value.DoubleValue
64.253

@<SCITEGIC>MOL_PROPERTY
E
SciTegic.value.DoubleValue
32.151

@<SCITEGIC>MOL_PROPERTY
-TS
SciTegic.value.DoubleValue
32.102

@<SCITEGIC>MOL_PROPERTY
U+W
SciTegic.value.DoubleValue
11.583

@<SCITEGIC>MOL_PROPERTY
U
SciTegic.value.DoubleValue
13.660

@<SCITEGIC>MOL_PROPERTY
W
SciTegic.value.DoubleValue
-2.077

@<SCITEGIC>MOL_PROPERTY
W(PB)
SciTegic.value.DoubleValue
-4.202

@<SCITEGIC>MOL_PROPERTY
W(SA)
SciTegic.value.DoubleValue
2.125

@<SCITEGIC>MOL_PROPERTY
Valence
SciTegic.value.DoubleValue
18.998

@<SCITEGIC>MOL_PROPERTY
Coulomb
SciTegic.value.DoubleValue
-7.829

@<SCITEGIC>MOL_PROPERTY
VdW
SciTegic.value.DoubleValue
2.491

@<SCITEGIC>MOL_PROPERTY
VdW6
SciTegic.value.DoubleValue
-12.613

@<SCITEGIC>MOL_PROPERTY
VdW12
SciTegic.value.DoubleValue
15.104

@<SCITEGIC>MOL_PROPERTY
Bond
SciTegic.value.DoubleValue
0.387

@<SCITEGIC>MOL_PROPERTY
Angle
SciTegic.value.DoubleValue
4.271

@<SCITEGIC>MOL_PROPERTY
Pdih
SciTegic.value.DoubleValue
14.340

@<SCITEGIC>MOL_PROPERTY
Idih
SciTegic.value.DoubleValue
0.000

@<SCITEGIC>MOL_PROPERTY
Tether
SciTegic.value.DoubleValue
0.000

@<TRIPOS>MOLECULE
guest-s17_vm2.mol2 : vm2 ligand conformer 78
          25          25           1
SMALL
USER_CHARGES
 
@<TRIPOS>ATOM
       1    C1      19.896141   19.004851   20.786632 C.3        1 MOL1        -0.1684
       2    H1      18.941185   18.619889   21.166435 H          1 MOL1         0.0833
       3    H2      19.772932   19.032972   19.695327 H          1 MOL1         0.0833
       4    C2      21.045538   18.007211   21.088068 C.3        1 MOL1        -0.1684
       5    H3      20.705444   17.000615   20.808985 H          1 MOL1         0.0833
       6    H4      21.892618   18.230624   20.425279 H          1 MOL1         0.0833
       7    C3      21.566879   17.968611   22.544810 C.3        1 MOL1        -0.1684
       8    H5      22.233599   18.821578   22.717085 H          1 MOL1         0.0833
       9    H6      22.209201   17.084174   22.654196 H          1 MOL1         0.0833
      10    C4      20.448509   17.908974   23.618156 C.3        1 MOL1        -0.1760
      11    H7      19.466963   17.760440   23.153929 H          1 MOL1         0.0833
      12    H8      20.609764   17.015825   24.235492 H          1 MOL1         0.0833
      13    C5      20.399741   19.134867   24.559078 C.3        1 MOL1         0.1219
      14    H9      21.258165   19.065258   25.242739 H          1 MOL1         0.0790
      15    C6      20.474753   20.527309   23.879478 C.3        1 MOL1        -0.1760
      16    H10     20.244787   21.272092   24.652947 H          1 MOL1         0.0833
      17    H11     21.507000   20.747281   23.582426 H          1 MOL1         0.0833
      18    C7      19.518843   20.772057   22.682037 C.3        1 MOL1        -0.1684
      19    H12     19.268678   21.841665   22.688605 H          1 MOL1         0.0833
      20    H13     18.564412   20.250378   22.835067 H          1 MOL1         0.0833
      21    C8      20.113856   20.456412   21.281426 C.3        1 MOL1        -0.1684
      22    H14     21.175724   20.731709   21.229418 H          1 MOL1         0.0833
      23    H15     19.606841   21.116732   20.564503 H          1 MOL1         0.0833
      24    O1      19.199739   19.062707   25.320316 O.3        1 MOL1        -0.5508
      25    H16     19.202929   18.192508   25.769989 H          1 MOL1         0.3780
@<TRIPOS>BOND
    1     1     2    1
    2     1     3    1
    3     1     4    1
    4     4     5    1
    5     4     6    1
    6     4     7    1
    7     7     8    1
    8     7     9    1
    9     7    10    1
   10    10    11    1
   11    10    12    1
   12    10    13    1
   13    13    14    1
   14    13    15    1
   15    15    16    1
   16    15    17    1
   17    15    18    1
   18    18    19    1
   19    18    20    1
   20     1    21    1
   21    18    21    1
   22    21    22    1
   23    21    23    1
   24    13    24    1
   25    24    25    1
@<TRIPOS>SUBSTRUCTURE
       1 MOL1            1 RESIDUE      1      MOL     
@<SCITEGIC>MOL_PROPERTY
VM2 Rank
SciTegic.value.IntegerValue
78

@<SCITEGIC>MOL_PROPERTY
Conf_Id
SciTegic.value.IntegerValue
110

@<SCITEGIC>MOL_PROPERTY
Probability
SciTegic.value.DoubleValue
0.10

@<SCITEGIC>MOL_PROPERTY
Sum Probability
SciTegic.value.DoubleValue
99.35

@<SCITEGIC>MOL_PROPERTY
Delta G
SciTegic.value.DoubleValue
2.275

@<SCITEGIC>MOL_PROPERTY
G
SciTegic.value.DoubleValue
64.350

@<SCITEGIC>MOL_PROPERTY
E
SciTegic.value.DoubleValue
32.027

@<SCITEGIC>MOL_PROPERTY
-TS
SciTegic.value.DoubleValue
32.324

@<SCITEGIC>MOL_PROPERTY
U+W
SciTegic.value.DoubleValue
11.459

@<SCITEGIC>MOL_PROPERTY
U
SciTegic.value.DoubleValue
13.691

@<SCITEGIC>MOL_PROPERTY
W
SciTegic.value.DoubleValue
-2.232

@<SCITEGIC>MOL_PROPERTY
W(PB)
SciTegic.value.DoubleValue
-4.350

@<SCITEGIC>MOL_PROPERTY
W(SA)
SciTegic.value.DoubleValue
2.119

@<SCITEGIC>MOL_PROPERTY
Valence
SciTegic.value.DoubleValue
18.570

@<SCITEGIC>MOL_PROPERTY
Coulomb
SciTegic.value.DoubleValue
-7.751

@<SCITEGIC>MOL_PROPERTY
VdW
SciTegic.value.DoubleValue
2.872

@<SCITEGIC>MOL_PROPERTY
VdW6
SciTegic.value.DoubleValue
-12.549

@<SCITEGIC>MOL_PROPERTY
VdW12
SciTegic.value.DoubleValue
15.421

@<SCITEGIC>MOL_PROPERTY
Bond
SciTegic.value.DoubleValue
0.436

@<SCITEGIC>MOL_PROPERTY
Angle
SciTegic.value.DoubleValue
4.707

@<SCITEGIC>MOL_PROPERTY
Pdih
SciTegic.value.DoubleValue
13.427

@<SCITEGIC>MOL_PROPERTY
Idih
SciTegic.value.DoubleValue
0.000

@<SCITEGIC>MOL_PROPERTY
Tether
SciTegic.value.DoubleValue
0.000

@<TRIPOS>MOLECULE
guest-s17_vm2.mol2 : vm2 ligand conformer 79
          25          25           1
SMALL
USER_CHARGES
 
@<TRIPOS>ATOM
       1    C1      19.855964   19.055258   20.790465 C.3        1 MOL1        -0.1684
       2    H1      19.780373   18.943750   19.700158 H          1 MOL1         0.0833
       3    H2      18.910767   18.655286   21.179068 H          1 MOL1         0.0833
       4    C2      21.038676   18.183060   21.280080 C.3        1 MOL1        -0.1684
       5    H3      21.984631   18.737537   21.218571 H          1 MOL1         0.0833
       6    H4      21.140398   17.354417   20.565888 H          1 MOL1         0.0833
       7    C3      20.850723   17.545393   22.684873 C.3        1 MOL1        -0.1684
       8    H5      19.807659   17.241734   22.847101 H          1 MOL1         0.0833
       9    H6      21.428703   16.611269   22.691025 H          1 MOL1         0.0833
      10    C4      21.363997   18.398637   23.874854 C.3        1 MOL1        -0.1760
      11    H7      21.732787   17.712086   24.648470 H          1 MOL1         0.0833
      12    H8      22.248084   18.970304   23.568664 H          1 MOL1         0.0833
      13    C5      20.333009   19.334759   24.558314 C.3        1 MOL1         0.1219
      14    H9      20.896995   19.993048   25.234854 H          1 MOL1         0.0790
      15    C6      19.494893   20.233304   23.619860 C.3        1 MOL1        -0.1760
      16    H10     18.691463   19.643492   23.164201 H          1 MOL1         0.0833
      17    H11     18.983133   20.982289   24.237878 H          1 MOL1         0.0833
      18    C7      20.320855   20.976083   22.537067 C.3        1 MOL1        -0.1684
      19    H12     21.396507   20.843384   22.701722 H          1 MOL1         0.0833
      20    H13     20.152189   22.056388   22.643188 H          1 MOL1         0.0833
      21    C8      19.967822   20.574537   21.084654 C.3        1 MOL1        -0.1684
      22    H14     20.720362   21.011587   20.414267 H          1 MOL1         0.0833
      23    H15     19.014175   21.046096   20.810838 H          1 MOL1         0.0833
      24    O1      19.438061   18.541969   25.329833 O.3        1 MOL1        -0.5508
      25    H16     18.829429   19.162455   25.781527 H          1 MOL1         0.3780
@<TRIPOS>BOND
    1     1     2    1
    2     1     3    1
    3     1     4    1
    4     4     5    1
    5     4     6    1
    6     4     7    1
    7     7     8    1
    8     7     9    1
    9     7    10    1
   10    10    11    1
   11    10    12    1
   12    10    13    1
   13    13    14    1
   14    13    15    1
   15    15    16    1
   16    15    17    1
   17    15    18    1
   18    18    19    1
   19    18    20    1
   20     1    21    1
   21    18    21    1
   22    21    22    1
   23    21    23    1
   24    13    24    1
   25    24    25    1
@<TRIPOS>SUBSTRUCTURE
       1 MOL1            1 RESIDUE      1      MOL     
@<SCITEGIC>MOL_PROPERTY
VM2 Rank
SciTegic.value.IntegerValue
79

@<SCITEGIC>MOL_PROPERTY
Conf_Id
SciTegic.value.IntegerValue
659

@<SCITEGIC>MOL_PROPERTY
Probability
SciTegic.value.DoubleValue
0.10

@<SCITEGIC>MOL_PROPERTY
Sum Probability
SciTegic.value.DoubleValue
99.45

@<SCITEGIC>MOL_PROPERTY
Delta G
SciTegic.value.DoubleValue
2.300

@<SCITEGIC>MOL_PROPERTY
G
SciTegic.value.DoubleValue
64.375

@<SCITEGIC>MOL_PROPERTY
E
SciTegic.value.DoubleValue
32.051

@<SCITEGIC>MOL_PROPERTY
-TS
SciTegic.value.DoubleValue
32.324

@<SCITEGIC>MOL_PROPERTY
U+W
SciTegic.value.DoubleValue
11.484

@<SCITEGIC>MOL_PROPERTY
U
SciTegic.value.DoubleValue
13.691

@<SCITEGIC>MOL_PROPERTY
W
SciTegic.value.DoubleValue
-2.207

@<SCITEGIC>MOL_PROPERTY
W(PB)
SciTegic.value.DoubleValue
-4.339

@<SCITEGIC>MOL_PROPERTY
W(SA)
SciTegic.value.DoubleValue
2.132

@<SCITEGIC>MOL_PROPERTY
Valence
SciTegic.value.DoubleValue
18.570

@<SCITEGIC>MOL_PROPERTY
Coulomb
SciTegic.value.DoubleValue
-7.751

@<SCITEGIC>MOL_PROPERTY
VdW
SciTegic.value.DoubleValue
2.872

@<SCITEGIC>MOL_PROPERTY
VdW6
SciTegic.value.DoubleValue
-12.549

@<SCITEGIC>MOL_PROPERTY
VdW12
SciTegic.value.DoubleValue
15.421

@<SCITEGIC>MOL_PROPERTY
Bond
SciTegic.value.DoubleValue
0.436

@<SCITEGIC>MOL_PROPERTY
Angle
SciTegic.value.DoubleValue
4.706

@<SCITEGIC>MOL_PROPERTY
Pdih
SciTegic.value.DoubleValue
13.427

@<SCITEGIC>MOL_PROPERTY
Idih
SciTegic.value.DoubleValue
0.000

@<SCITEGIC>MOL_PROPERTY
Tether
SciTegic.value.DoubleValue
0.000

@<TRIPOS>MOLECULE
guest-s17_vm2.mol2 : vm2 ligand conformer 80
          25          25           1
SMALL
USER_CHARGES
 
@<TRIPOS>ATOM
       1    C1      20.230379   19.145809   20.610614 C.3        1 MOL1        -0.1684
       2    H1      19.191363   18.802158   20.516025 H          1 MOL1         0.0833
       3    H2      20.579507   19.319947   19.583665 H          1 MOL1         0.0833
       4    C2      21.106135   18.023872   21.215515 C.3        1 MOL1        -0.1684
       5    H3      21.023161   17.150547   20.554243 H          1 MOL1         0.0833
       6    H4      22.164845   18.314817   21.188114 H          1 MOL1         0.0833
       7    C3      20.708127   17.580291   22.643130 C.3        1 MOL1        -0.1684
       8    H5      21.046749   16.543137   22.770042 H          1 MOL1         0.0833
       9    H6      19.615410   17.537716   22.735525 H          1 MOL1         0.0833
      10    C4      21.356107   18.419855   23.782811 C.3        1 MOL1        -0.1760
      11    H7      21.820453   17.717048   24.486634 H          1 MOL1         0.0833
      12    H8      22.185449   19.024346   23.394954 H          1 MOL1         0.0833
      13    C5      20.411433   19.322377   24.615250 C.3        1 MOL1         0.1219
      14    H9      20.959986   19.584269   25.531626 H          1 MOL1         0.0790
      15    C6      20.026226   20.665629   23.951793 C.3        1 MOL1        -0.1760
      16    H10     19.365259   21.199715   24.646779 H          1 MOL1         0.0833
      17    H11     20.920353   21.296314   23.865458 H          1 MOL1         0.0833
      18    C7      19.312821   20.578211   22.579352 C.3        1 MOL1        -0.1684
      19    H12     18.587338   19.753948   22.574953 H          1 MOL1         0.0833
      20    H13     18.714063   21.491583   22.461032 H          1 MOL1         0.0833
      21    C8      20.277283   20.493342   21.366909 C.3        1 MOL1        -0.1684
      22    H14     21.309854   20.728930   21.656662 H          1 MOL1         0.0833
      23    H15     19.986790   21.279952   20.657048 H          1 MOL1         0.0833
      24    O1      19.235490   18.613613   24.994625 O.3        1 MOL1        -0.5508
      25    H16     18.677866   19.242396   25.496217 H          1 MOL1         0.3780
@<TRIPOS>BOND
    1     1     2    1
    2     1     3    1
    3     1     4    1
    4     4     5    1
    5     4     6    1
    6     4     7    1
    7     7     8    1
    8     7     9    1
    9     7    10    1
   10    10    11    1
   11    10    12    1
   12    10    13    1
   13    13    14    1
   14    13    15    1
   15    15    16    1
   16    15    17    1
   17    15    18    1
   18    18    19    1
   19    18    20    1
   20     1    21    1
   21    18    21    1
   22    21    22    1
   23    21    23    1
   24    13    24    1
   25    24    25    1
@<TRIPOS>SUBSTRUCTURE
       1 MOL1            1 RESIDUE      1      MOL     
@<SCITEGIC>MOL_PROPERTY
VM2 Rank
SciTegic.value.IntegerValue
80

@<SCITEGIC>MOL_PROPERTY
Conf_Id
SciTegic.value.IntegerValue
576

@<SCITEGIC>MOL_PROPERTY
Probability
SciTegic.value.DoubleValue
0.10

@<SCITEGIC>MOL_PROPERTY
Sum Probability
SciTegic.value.DoubleValue
99.54

@<SCITEGIC>MOL_PROPERTY
Delta G
SciTegic.value.DoubleValue
2.303

@<SCITEGIC>MOL_PROPERTY
G
SciTegic.value.DoubleValue
64.379

@<SCITEGIC>MOL_PROPERTY
E
SciTegic.value.DoubleValue
32.413

@<SCITEGIC>MOL_PROPERTY
-TS
SciTegic.value.DoubleValue
31.965

@<SCITEGIC>MOL_PROPERTY
U+W
SciTegic.value.DoubleValue
11.846

@<SCITEGIC>MOL_PROPERTY
U
SciTegic.value.DoubleValue
14.106

@<SCITEGIC>MOL_PROPERTY
W
SciTegic.value.DoubleValue
-2.260

@<SCITEGIC>MOL_PROPERTY
W(PB)
SciTegic.value.DoubleValue
-4.387

@<SCITEGIC>MOL_PROPERTY
W(SA)
SciTegic.value.DoubleValue
2.127

@<SCITEGIC>MOL_PROPERTY
Valence
SciTegic.value.DoubleValue
19.023

@<SCITEGIC>MOL_PROPERTY
Coulomb
SciTegic.value.DoubleValue
-7.308

@<SCITEGIC>MOL_PROPERTY
VdW
SciTegic.value.DoubleValue
2.390

@<SCITEGIC>MOL_PROPERTY
VdW6
SciTegic.value.DoubleValue
-12.497

@<SCITEGIC>MOL_PROPERTY
VdW12
SciTegic.value.DoubleValue
14.887

@<SCITEGIC>MOL_PROPERTY
Bond
SciTegic.value.DoubleValue
0.377

@<SCITEGIC>MOL_PROPERTY
Angle
SciTegic.value.DoubleValue
4.356

@<SCITEGIC>MOL_PROPERTY
Pdih
SciTegic.value.DoubleValue
14.291

@<SCITEGIC>MOL_PROPERTY
Idih
SciTegic.value.DoubleValue
0.000

@<SCITEGIC>MOL_PROPERTY
Tether
SciTegic.value.DoubleValue
0.000

@<TRIPOS>MOLECULE
guest-s17_vm2.mol2 : vm2 ligand conformer 81
          25          25           1
SMALL
USER_CHARGES
 
@<TRIPOS>ATOM
       1    C1      20.236195   19.185774   20.609763 C.3        1 MOL1        -0.1684
       2    H1      19.282360   18.651002   20.505790 H          1 MOL1         0.0833
       3    H2      20.613112   19.320974   19.586781 H          1 MOL1         0.0833
       4    C2      21.252300   18.313970   21.382757 C.3        1 MOL1        -0.1684
       5    H3      21.645047   17.565261   20.681169 H          1 MOL1         0.0833
       6    H4      22.119696   18.917837   21.680463 H          1 MOL1         0.0833
       7    C3      20.648648   17.550919   22.591378 C.3        1 MOL1        -0.1684
       8    H5      20.919479   16.492003   22.481352 H          1 MOL1         0.0833
       9    H6      19.550938   17.572305   22.573247 H          1 MOL1         0.0833
      10    C4      21.177769   18.024521   23.968303 C.3        1 MOL1        -0.1760
      11    H7      21.116844   17.179584   24.666512 H          1 MOL1         0.0833
      12    H8      22.247685   18.257889   23.894142 H          1 MOL1         0.0833
      13    C5      20.438853   19.218640   24.617124 C.3        1 MOL1         0.1219
      14    H9      20.990962   19.450677   25.539391 H          1 MOL1         0.0790
      15    C6      20.421378   20.520998   23.778398 C.3        1 MOL1        -0.1760
      16    H10     20.207740   21.341277   24.475839 H          1 MOL1         0.0833
      17    H11     21.432009   20.722841   23.402183 H          1 MOL1         0.0833
      18    C7      19.378874   20.604604   22.625225 C.3        1 MOL1        -0.1684
      19    H12     18.840974   21.555240   22.741034 H          1 MOL1         0.0833
      20    H13     18.608536   19.827754   22.711619 H          1 MOL1         0.0833
      21    C8      19.992572   20.592079   21.205201 C.3        1 MOL1        -0.1684
      22    H14     20.922361   21.176387   21.186700 H          1 MOL1         0.0833
      23    H15     19.300715   21.117532   20.532821 H          1 MOL1         0.0833
      24    O1      19.117412   18.831495   24.981851 O.3        1 MOL1        -0.5508
      25    H16     19.198439   17.998005   25.488445 H          1 MOL1         0.3780
@<TRIPOS>BOND
    1     1     2    1
    2     1     3    1
    3     1     4    1
    4     4     5    1
    5     4     6    1
    6     4     7    1
    7     7     8    1
    8     7     9    1
    9     7    10    1
   10    10    11    1
   11    10    12    1
   12    10    13    1
   13    13    14    1
   14    13    15    1
   15    15    16    1
   16    15    17    1
   17    15    18    1
   18    18    19    1
   19    18    20    1
   20     1    21    1
   21    18    21    1
   22    21    22    1
   23    21    23    1
   24    13    24    1
   25    24    25    1
@<TRIPOS>SUBSTRUCTURE
       1 MOL1            1 RESIDUE      1      MOL     
@<SCITEGIC>MOL_PROPERTY
VM2 Rank
SciTegic.value.IntegerValue
81

@<SCITEGIC>MOL_PROPERTY
Conf_Id
SciTegic.value.IntegerValue
1680

@<SCITEGIC>MOL_PROPERTY
Probability
SciTegic.value.DoubleValue
0.10

@<SCITEGIC>MOL_PROPERTY
Sum Probability
SciTegic.value.DoubleValue
99.64

@<SCITEGIC>MOL_PROPERTY
Delta G
SciTegic.value.DoubleValue
2.306

@<SCITEGIC>MOL_PROPERTY
G
SciTegic.value.DoubleValue
64.381

@<SCITEGIC>MOL_PROPERTY
E
SciTegic.value.DoubleValue
32.417

@<SCITEGIC>MOL_PROPERTY
-TS
SciTegic.value.DoubleValue
31.964

@<SCITEGIC>MOL_PROPERTY
U+W
SciTegic.value.DoubleValue
11.849

@<SCITEGIC>MOL_PROPERTY
U
SciTegic.value.DoubleValue
14.106

@<SCITEGIC>MOL_PROPERTY
W
SciTegic.value.DoubleValue
-2.256

@<SCITEGIC>MOL_PROPERTY
W(PB)
SciTegic.value.DoubleValue
-4.382

@<SCITEGIC>MOL_PROPERTY
W(SA)
SciTegic.value.DoubleValue
2.126

@<SCITEGIC>MOL_PROPERTY
Valence
SciTegic.value.DoubleValue
19.023

@<SCITEGIC>MOL_PROPERTY
Coulomb
SciTegic.value.DoubleValue
-7.308

@<SCITEGIC>MOL_PROPERTY
VdW
SciTegic.value.DoubleValue
2.390

@<SCITEGIC>MOL_PROPERTY
VdW6
SciTegic.value.DoubleValue
-12.497

@<SCITEGIC>MOL_PROPERTY
VdW12
SciTegic.value.DoubleValue
14.887

@<SCITEGIC>MOL_PROPERTY
Bond
SciTegic.value.DoubleValue
0.376

@<SCITEGIC>MOL_PROPERTY
Angle
SciTegic.value.DoubleValue
4.356

@<SCITEGIC>MOL_PROPERTY
Pdih
SciTegic.value.DoubleValue
14.291

@<SCITEGIC>MOL_PROPERTY
Idih
SciTegic.value.DoubleValue
0.000

@<SCITEGIC>MOL_PROPERTY
Tether
SciTegic.value.DoubleValue
0.000

@<TRIPOS>MOLECULE
guest-s17_vm2.mol2 : vm2 ligand conformer 82
          25          25           1
SMALL
USER_CHARGES
 
@<TRIPOS>ATOM
       1    C1      20.386790   19.340650   20.720947 C.3        1 MOL1        -0.1684
       2    H1      19.871825   18.761044   19.942739 H          1 MOL1         0.0833
       3    H2      20.955507   20.114036   20.187343 H          1 MOL1         0.0833
       4    C2      21.378667   18.388202   21.437547 C.3        1 MOL1        -0.1684
       5    H3      21.832640   17.752437   20.665149 H          1 MOL1         0.0833
       6    H4      22.220315   18.953720   21.852988 H          1 MOL1         0.0833
       7    C3      20.757862   17.466580   22.520240 C.3        1 MOL1        -0.1684
       8    H5      21.200931   16.469200   22.396279 H          1 MOL1         0.0833
       9    H6      19.682743   17.319951   22.358724 H          1 MOL1         0.0833
      10    C4      21.041027   17.907836   23.982484 C.3        1 MOL1        -0.1760
      11    H7      20.748195   17.083244   24.645381 H          1 MOL1         0.0833
      12    H8      22.124973   18.016593   24.116336 H          1 MOL1         0.0833
      13    C5      20.347103   19.190724   24.509900 C.3        1 MOL1         0.1219
      14    H9      20.710178   19.311349   25.540834 H          1 MOL1         0.0790
      15    C6      20.732196   20.502393   23.772094 C.3        1 MOL1        -0.1760
      16    H10     20.800918   21.293882   24.529611 H          1 MOL1         0.0833
      17    H11     21.753091   20.417803   23.385662 H          1 MOL1         0.0833
      18    C7      19.787214   21.026476   22.653779 C.3        1 MOL1        -0.1684
      19    H12     18.900502   21.465090   23.130709 H          1 MOL1         0.0833
      20    H13     20.286028   21.860189   22.141500 H          1 MOL1         0.0833
      21    C8      19.295253   20.013264   21.590348 C.3        1 MOL1        -0.1684
      22    H14     18.624383   20.555759   20.910642 H          1 MOL1         0.0833
      23    H15     18.657098   19.253548   22.054093 H          1 MOL1         0.0833
      24    O1      18.937888   19.006874   24.572661 O.3        1 MOL1        -0.5508
      25    H16     18.553639   19.899443   24.681851 H          1 MOL1         0.3780
@<TRIPOS>BOND
    1     1     2    1
    2     1     3    1
    3     1     4    1
    4     4     5    1
    5     4     6    1
    6     4     7    1
    7     7     8    1
    8     7     9    1
    9     7    10    1
   10    10    11    1
   11    10    12    1
   12    10    13    1
   13    13    14    1
   14    13    15    1
   15    15    16    1
   16    15    17    1
   17    15    18    1
   18    18    19    1
   19    18    20    1
   20     1    21    1
   21    18    21    1
   22    21    22    1
   23    21    23    1
   24    13    24    1
   25    24    25    1
@<TRIPOS>SUBSTRUCTURE
       1 MOL1            1 RESIDUE      1      MOL     
@<SCITEGIC>MOL_PROPERTY
VM2 Rank
SciTegic.value.IntegerValue
82

@<SCITEGIC>MOL_PROPERTY
Conf_Id
SciTegic.value.IntegerValue
1963

@<SCITEGIC>MOL_PROPERTY
Probability
SciTegic.value.DoubleValue
0.08

@<SCITEGIC>MOL_PROPERTY
Sum Probability
SciTegic.value.DoubleValue
99.72

@<SCITEGIC>MOL_PROPERTY
Delta G
SciTegic.value.DoubleValue
2.448

@<SCITEGIC>MOL_PROPERTY
G
SciTegic.value.DoubleValue
64.523

@<SCITEGIC>MOL_PROPERTY
E
SciTegic.value.DoubleValue
31.846

@<SCITEGIC>MOL_PROPERTY
-TS
SciTegic.value.DoubleValue
32.677

@<SCITEGIC>MOL_PROPERTY
U+W
SciTegic.value.DoubleValue
11.278

@<SCITEGIC>MOL_PROPERTY
U
SciTegic.value.DoubleValue
13.108

@<SCITEGIC>MOL_PROPERTY
W
SciTegic.value.DoubleValue
-1.830

@<SCITEGIC>MOL_PROPERTY
W(PB)
SciTegic.value.DoubleValue
-3.947

@<SCITEGIC>MOL_PROPERTY
W(SA)
SciTegic.value.DoubleValue
2.117

@<SCITEGIC>MOL_PROPERTY
Valence
SciTegic.value.DoubleValue
17.759

@<SCITEGIC>MOL_PROPERTY
Coulomb
SciTegic.value.DoubleValue
-7.345

@<SCITEGIC>MOL_PROPERTY
VdW
SciTegic.value.DoubleValue
2.694

@<SCITEGIC>MOL_PROPERTY
VdW6
SciTegic.value.DoubleValue
-13.719

@<SCITEGIC>MOL_PROPERTY
VdW12
SciTegic.value.DoubleValue
16.413

@<SCITEGIC>MOL_PROPERTY
Bond
SciTegic.value.DoubleValue
0.511

@<SCITEGIC>MOL_PROPERTY
Angle
SciTegic.value.DoubleValue
7.046

@<SCITEGIC>MOL_PROPERTY
Pdih
SciTegic.value.DoubleValue
10.202

@<SCITEGIC>MOL_PROPERTY
Idih
SciTegic.value.DoubleValue
0.000

@<SCITEGIC>MOL_PROPERTY
Tether
SciTegic.value.DoubleValue
0.000

@<TRIPOS>MOLECULE
guest-s17_vm2.mol2 : vm2 ligand conformer 83
          25          25           1
SMALL
USER_CHARGES
 
@<TRIPOS>ATOM
       1    C1      19.665856   18.985238   21.102330 C.3        1 MOL1        -0.1684
       2    H1      19.403995   18.891316   20.039229 H          1 MOL1         0.0833
       3    H2      18.715659   18.812604   21.617130 H          1 MOL1         0.0833
       4    C2      20.685351   17.855237   21.405800 C.3        1 MOL1        -0.1684
       5    H3      20.144232   16.912556   21.564624 H          1 MOL1         0.0833
       6    H4      21.276304   17.700422   20.492520 H          1 MOL1         0.0833
       7    C3      21.697815   18.072620   22.558432 C.3        1 MOL1        -0.1684
       8    H5      22.265725   18.998098   22.412747 H          1 MOL1         0.0833
       9    H6      22.450166   17.276795   22.471989 H          1 MOL1         0.0833
      10    C4      21.133962   17.994695   24.000194 C.3        1 MOL1        -0.1760
      11    H7      20.641931   17.024008   24.147425 H          1 MOL1         0.0833
      12    H8      21.995397   17.986323   24.680638 H          1 MOL1         0.0833
      13    C5      20.190591   19.123227   24.483820 C.3        1 MOL1         0.1219
      14    H9      20.303819   19.155311   25.577127 H          1 MOL1         0.0790
      15    C6      20.520499   20.548350   23.962515 C.3        1 MOL1        -0.1760
      16    H10     20.272262   21.240438   24.777666 H          1 MOL1         0.0833
      17    H11     21.602957   20.659324   23.824469 H          1 MOL1         0.0833
      18    C7      19.764989   21.057002   22.700083 C.3        1 MOL1        -0.1684
      19    H12     19.957237   22.136140   22.627131 H          1 MOL1         0.0833
      20    H13     18.679832   20.974520   22.848087 H          1 MOL1         0.0833
      21    C8      20.159064   20.435617   21.334956 C.3        1 MOL1        -0.1684
      22    H14     21.238375   20.524069   21.158145 H          1 MOL1         0.0833
      23    H15     19.695086   21.061443   20.560186 H          1 MOL1         0.0833
      24    O1      18.845871   18.771014   24.211868 O.3        1 MOL1        -0.5508
      25    H16     18.799567   18.759846   23.237585 H          1 MOL1         0.3780
@<TRIPOS>BOND
    1     1     2    1
    2     1     3    1
    3     1     4    1
    4     4     5    1
    5     4     6    1
    6     4     7    1
    7     7     8    1
    8     7     9    1
    9     7    10    1
   10    10    11    1
   11    10    12    1
   12    10    13    1
   13    13    14    1
   14    13    15    1
   15    15    16    1
   16    15    17    1
   17    15    18    1
   18    18    19    1
   19    18    20    1
   20     1    21    1
   21    18    21    1
   22    21    22    1
   23    21    23    1
   24    13    24    1
   25    24    25    1
@<TRIPOS>SUBSTRUCTURE
       1 MOL1            1 RESIDUE      1      MOL     
@<SCITEGIC>MOL_PROPERTY
VM2 Rank
SciTegic.value.IntegerValue
83

@<SCITEGIC>MOL_PROPERTY
Conf_Id
SciTegic.value.IntegerValue
855

@<SCITEGIC>MOL_PROPERTY
Probability
SciTegic.value.DoubleValue
0.07

@<SCITEGIC>MOL_PROPERTY
Sum Probability
SciTegic.value.DoubleValue
99.79

@<SCITEGIC>MOL_PROPERTY
Delta G
SciTegic.value.DoubleValue
2.492

@<SCITEGIC>MOL_PROPERTY
G
SciTegic.value.DoubleValue
64.567

@<SCITEGIC>MOL_PROPERTY
E
SciTegic.value.DoubleValue
31.741

@<SCITEGIC>MOL_PROPERTY
-TS
SciTegic.value.DoubleValue
32.826

@<SCITEGIC>MOL_PROPERTY
U+W
SciTegic.value.DoubleValue
11.174

@<SCITEGIC>MOL_PROPERTY
U
SciTegic.value.DoubleValue
12.093

@<SCITEGIC>MOL_PROPERTY
W
SciTegic.value.DoubleValue
-0.919

@<SCITEGIC>MOL_PROPERTY
W(PB)
SciTegic.value.DoubleValue
-3.032

@<SCITEGIC>MOL_PROPERTY
W(SA)
SciTegic.value.DoubleValue
2.112

@<SCITEGIC>MOL_PROPERTY
Valence
SciTegic.value.DoubleValue
19.645

@<SCITEGIC>MOL_PROPERTY
Coulomb
SciTegic.value.DoubleValue
-9.929

@<SCITEGIC>MOL_PROPERTY
VdW
SciTegic.value.DoubleValue
2.377

@<SCITEGIC>MOL_PROPERTY
VdW6
SciTegic.value.DoubleValue
-13.909

@<SCITEGIC>MOL_PROPERTY
VdW12
SciTegic.value.DoubleValue
16.286

@<SCITEGIC>MOL_PROPERTY
Bond
SciTegic.value.DoubleValue
0.498

@<SCITEGIC>MOL_PROPERTY
Angle
SciTegic.value.DoubleValue
8.147

@<SCITEGIC>MOL_PROPERTY
Pdih
SciTegic.value.DoubleValue
11.000

@<SCITEGIC>MOL_PROPERTY
Idih
SciTegic.value.DoubleValue
0.000

@<SCITEGIC>MOL_PROPERTY
Tether
SciTegic.value.DoubleValue
0.000

@<TRIPOS>MOLECULE
guest-s17_vm2.mol2 : vm2 ligand conformer 84
          25          25           1
SMALL
USER_CHARGES
 
@<TRIPOS>ATOM
       1    C1      20.388262   19.340448   20.718910 C.3        1 MOL1        -0.1684
       2    H1      19.873845   18.761672   19.939743 H          1 MOL1         0.0833
       3    H2      20.957812   20.114205   20.186762 H          1 MOL1         0.0833
       4    C2      21.378447   18.387313   21.436330 C.3        1 MOL1        -0.1684
       5    H3      22.219701   18.953239   21.852200 H          1 MOL1         0.0833
       6    H4      21.832776   17.750832   20.664722 H          1 MOL1         0.0833
       7    C3      20.755930   17.467339   22.519483 C.3        1 MOL1        -0.1684
       8    H5      21.198584   16.469648   22.395892 H          1 MOL1         0.0833
       9    H6      19.680952   17.321183   22.357173 H          1 MOL1         0.0833
      10    C4      21.042976   17.910801   23.980016 C.3        1 MOL1        -0.1760
      11    H7      20.766338   17.082451   24.645006 H          1 MOL1         0.0833
      12    H8      22.127275   18.027782   24.105303 H          1 MOL1         0.0833
      13    C5      20.347434   19.192134   24.510588 C.3        1 MOL1         0.1219
      14    H9      20.715629   19.311570   25.539838 H          1 MOL1         0.0790
      15    C6      20.731999   20.503834   23.771619 C.3        1 MOL1        -0.1760
      16    H10     20.792897   21.294795   24.530023 H          1 MOL1         0.0833
      17    H11     21.753713   20.423176   23.386838 H          1 MOL1         0.0833
      18    C7      19.784838   21.024659   22.653881 C.3        1 MOL1        -0.1684
      19    H12     20.273237   21.867219   22.146512 H          1 MOL1         0.0833
      20    H13     18.894076   21.446432   23.139144 H          1 MOL1         0.0833
      21    C8      19.296392   20.012412   21.588110 C.3        1 MOL1        -0.1684
      22    H14     18.624536   20.554477   20.909179 H          1 MOL1         0.0833
      23    H15     18.658674   19.253643   22.054005 H          1 MOL1         0.0833
      24    O1      18.937722   19.004060   24.581063 O.3        1 MOL1        -0.5508
      25    H16     18.791549   18.143124   25.021726 H          1 MOL1         0.3780
@<TRIPOS>BOND
    1     1     2    1
    2     1     3    1
    3     1     4    1
    4     4     5    1
    5     4     6    1
    6     4     7    1
    7     7     8    1
    8     7     9    1
    9     7    10    1
   10    10    11    1
   11    10    12    1
   12    10    13    1
   13    13    14    1
   14    13    15    1
   15    15    16    1
   16    15    17    1
   17    15    18    1
   18    18    19    1
   19    18    20    1
   20     1    21    1
   21    18    21    1
   22    21    22    1
   23    21    23    1
   24    13    24    1
   25    24    25    1
@<TRIPOS>SUBSTRUCTURE
       1 MOL1            1 RESIDUE      1      MOL     
@<SCITEGIC>MOL_PROPERTY
VM2 Rank
SciTegic.value.IntegerValue
84

@<SCITEGIC>MOL_PROPERTY
Conf_Id
SciTegic.value.IntegerValue
1531

@<SCITEGIC>MOL_PROPERTY
Probability
SciTegic.value.DoubleValue
0.02

@<SCITEGIC>MOL_PROPERTY
Sum Probability
SciTegic.value.DoubleValue
99.81

@<SCITEGIC>MOL_PROPERTY
Delta G
SciTegic.value.DoubleValue
3.276

@<SCITEGIC>MOL_PROPERTY
G
SciTegic.value.DoubleValue
65.351

@<SCITEGIC>MOL_PROPERTY
E
SciTegic.value.DoubleValue
32.519

@<SCITEGIC>MOL_PROPERTY
-TS
SciTegic.value.DoubleValue
32.832

@<SCITEGIC>MOL_PROPERTY
U+W
SciTegic.value.DoubleValue
11.951

@<SCITEGIC>MOL_PROPERTY
U
SciTegic.value.DoubleValue
13.951

@<SCITEGIC>MOL_PROPERTY
W
SciTegic.value.DoubleValue
-2.000

@<SCITEGIC>MOL_PROPERTY
W(PB)
SciTegic.value.DoubleValue
-4.130

@<SCITEGIC>MOL_PROPERTY
W(SA)
SciTegic.value.DoubleValue
2.130

@<SCITEGIC>MOL_PROPERTY
Valence
SciTegic.value.DoubleValue
17.543

@<SCITEGIC>MOL_PROPERTY
Coulomb
SciTegic.value.DoubleValue
-6.274

@<SCITEGIC>MOL_PROPERTY
VdW
SciTegic.value.DoubleValue
2.682

@<SCITEGIC>MOL_PROPERTY
VdW6
SciTegic.value.DoubleValue
-13.612

@<SCITEGIC>MOL_PROPERTY
VdW12
SciTegic.value.DoubleValue
16.294

@<SCITEGIC>MOL_PROPERTY
Bond
SciTegic.value.DoubleValue
0.512

@<SCITEGIC>MOL_PROPERTY
Angle
SciTegic.value.DoubleValue
7.072

@<SCITEGIC>MOL_PROPERTY
Pdih
SciTegic.value.DoubleValue
9.959

@<SCITEGIC>MOL_PROPERTY
Idih
SciTegic.value.DoubleValue
0.000

@<SCITEGIC>MOL_PROPERTY
Tether
SciTegic.value.DoubleValue
0.000

@<TRIPOS>MOLECULE
guest-s17_vm2.mol2 : vm2 ligand conformer 85
          25          25           1
SMALL
USER_CHARGES
 
@<TRIPOS>ATOM
       1    C1      20.482918   19.150972   20.721462 C.3        1 MOL1        -0.1684
       2    H1      21.444628   19.044514   20.201801 H          1 MOL1         0.0833
       3    H2      19.717617   19.148232   19.933416 H          1 MOL1         0.0833
       4    C2      20.235818   17.903629   21.605944 C.3        1 MOL1        -0.1684
       5    H3      19.240143   17.948644   22.059904 H          1 MOL1         0.0833
       6    H4      20.192778   17.032168   20.938953 H          1 MOL1         0.0833
       7    C3      21.301166   17.599754   22.688431 C.3        1 MOL1        -0.1684
       8    H5      22.258875   17.387259   22.194968 H          1 MOL1         0.0833
       9    H6      21.008571   16.663973   23.183945 H          1 MOL1         0.0833
      10    C4      21.540112   18.667015   23.793673 C.3        1 MOL1        -0.1760
      11    H7      22.157722   18.191165   24.566091 H          1 MOL1         0.0833
      12    H8      22.171967   19.471804   23.404396 H          1 MOL1         0.0833
      13    C5      20.302469   19.275082   24.509925 C.3        1 MOL1         0.1219
      14    H9      20.626776   19.482080   25.540055 H          1 MOL1         0.0790
      15    C6      19.828169   20.643749   23.954143 C.3        1 MOL1        -0.1760
      16    H10     19.021598   21.005593   24.604847 H          1 MOL1         0.0833
      17    H11     20.642558   21.369316   24.078274 H          1 MOL1         0.0833
      18    C7      19.323605   20.708485   22.486684 C.3        1 MOL1        -0.1684
      19    H12     18.884474   21.705144   22.343722 H          1 MOL1         0.0833
      20    H13     18.494317   20.008906   22.324969 H          1 MOL1         0.0833
      21    C8      20.435363   20.534987   21.418509 C.3        1 MOL1        -0.1684
      22    H14     21.415168   20.783052   21.842034 H          1 MOL1         0.0833
      23    H15     20.278714   21.288052   20.634127 H          1 MOL1         0.0833
      24    O1      19.214380   18.359326   24.581229 O.3        1 MOL1        -0.5508
      25    H16     18.474048   18.836363   25.006791 H          1 MOL1         0.3780
@<TRIPOS>BOND
    1     1     2    1
    2     1     3    1
    3     1     4    1
    4     4     5    1
    5     4     6    1
    6     4     7    1
    7     7     8    1
    8     7     9    1
    9     7    10    1
   10    10    11    1
   11    10    12    1
   12    10    13    1
   13    13    14    1
   14    13    15    1
   15    15    16    1
   16    15    17    1
   17    15    18    1
   18    18    19    1
   19    18    20    1
   20     1    21    1
   21    18    21    1
   22    21    22    1
   23    21    23    1
   24    13    24    1
   25    24    25    1
@<TRIPOS>SUBSTRUCTURE
       1 MOL1            1 RESIDUE      1      MOL     
@<SCITEGIC>MOL_PROPERTY
VM2 Rank
SciTegic.value.IntegerValue
85

@<SCITEGIC>MOL_PROPERTY
Conf_Id
SciTegic.value.IntegerValue
875

@<SCITEGIC>MOL_PROPERTY
Probability
SciTegic.value.DoubleValue
0.02

@<SCITEGIC>MOL_PROPERTY
Sum Probability
SciTegic.value.DoubleValue
99.83

@<SCITEGIC>MOL_PROPERTY
Delta G
SciTegic.value.DoubleValue
3.276

@<SCITEGIC>MOL_PROPERTY
G
SciTegic.value.DoubleValue
65.351

@<SCITEGIC>MOL_PROPERTY
E
SciTegic.value.DoubleValue
32.519

@<SCITEGIC>MOL_PROPERTY
-TS
SciTegic.value.DoubleValue
32.832

@<SCITEGIC>MOL_PROPERTY
U+W
SciTegic.value.DoubleValue
11.952

@<SCITEGIC>MOL_PROPERTY
U
SciTegic.value.DoubleValue
13.951

@<SCITEGIC>MOL_PROPERTY
W
SciTegic.value.DoubleValue
-2.000

@<SCITEGIC>MOL_PROPERTY
W(PB)
SciTegic.value.DoubleValue
-4.114

@<SCITEGIC>MOL_PROPERTY
W(SA)
SciTegic.value.DoubleValue
2.114

@<SCITEGIC>MOL_PROPERTY
Valence
SciTegic.value.DoubleValue
17.543

@<SCITEGIC>MOL_PROPERTY
Coulomb
SciTegic.value.DoubleValue
-6.274

@<SCITEGIC>MOL_PROPERTY
VdW
SciTegic.value.DoubleValue
2.682

@<SCITEGIC>MOL_PROPERTY
VdW6
SciTegic.value.DoubleValue
-13.612

@<SCITEGIC>MOL_PROPERTY
VdW12
SciTegic.value.DoubleValue
16.294

@<SCITEGIC>MOL_PROPERTY
Bond
SciTegic.value.DoubleValue
0.512

@<SCITEGIC>MOL_PROPERTY
Angle
SciTegic.value.DoubleValue
7.072

@<SCITEGIC>MOL_PROPERTY
Pdih
SciTegic.value.DoubleValue
9.959

@<SCITEGIC>MOL_PROPERTY
Idih
SciTegic.value.DoubleValue
0.000

@<SCITEGIC>MOL_PROPERTY
Tether
SciTegic.value.DoubleValue
0.000

@<TRIPOS>MOLECULE
guest-s17_vm2.mol2 : vm2 ligand conformer 86
          25          25           1
SMALL
USER_CHARGES
 
@<TRIPOS>ATOM
       1    C1      20.138878   19.137178   20.769359 C.3        1 MOL1        -0.1684
       2    H1      21.040944   19.477714   20.242630 H          1 MOL1         0.0833
       3    H2      19.427093   18.863897   19.978350 H          1 MOL1         0.0833
       4    C2      20.484422   17.847684   21.560443 C.3        1 MOL1        -0.1684
       5    H3      19.592433   17.391090   22.004255 H          1 MOL1         0.0833
       6    H4      20.822255   17.112079   20.817431 H          1 MOL1         0.0833
       7    C3      21.627418   18.001419   22.596801 C.3        1 MOL1        -0.1684
       8    H5      22.300205   18.816197   22.308164 H          1 MOL1         0.0833
       9    H6      22.255944   17.102676   22.531735 H          1 MOL1         0.0833
      10    C4      21.206583   18.138515   24.087135 C.3        1 MOL1        -0.1760
      11    H7      20.903154   17.145651   24.444878 H          1 MOL1         0.0833
      12    H8      22.102290   18.392196   24.668598 H          1 MOL1         0.0833
      13    C5      20.083085   19.130078   24.483395 C.3        1 MOL1         0.1219
      14    H9      20.056905   19.124307   25.582557 H          1 MOL1         0.0790
      15    C6      20.266296   20.614783   24.077738 C.3        1 MOL1        -0.1760
      16    H10     19.379447   21.158366   24.429656 H          1 MOL1         0.0833
      17    H11     21.103170   21.023405   24.658609 H          1 MOL1         0.0833
      18    C7      20.493820   20.986763   22.585472 C.3        1 MOL1        -0.1684
      19    H12     21.538563   20.821992   22.300545 H          1 MOL1         0.0833
      20    H13     20.367579   22.075712   22.512867 H          1 MOL1         0.0833
      21    C8      19.539463   20.336239   21.551001 C.3        1 MOL1        -0.1684
      22    H14     19.305779   21.105733   20.802279 H          1 MOL1         0.0833
      23    H15     18.568111   20.088650   21.994023 H          1 MOL1         0.0833
      24    O1      18.824035   18.650341   24.048656 O.3        1 MOL1        -0.5508
      25    H16     18.891104   18.672077   23.072149 H          1 MOL1         0.3780
@<TRIPOS>BOND
    1     1     2    1
    2     1     3    1
    3     1     4    1
    4     4     5    1
    5     4     6    1
    6     4     7    1
    7     7     8    1
    8     7     9    1
    9     7    10    1
   10    10    11    1
   11    10    12    1
   12    10    13    1
   13    13    14    1
   14    13    15    1
   15    15    16    1
   16    15    17    1
   17    15    18    1
   18    18    19    1
   19    18    20    1
   20     1    21    1
   21    18    21    1
   22    21    22    1
   23    21    23    1
   24    13    24    1
   25    24    25    1
@<TRIPOS>SUBSTRUCTURE
       1 MOL1            1 RESIDUE      1      MOL     
@<SCITEGIC>MOL_PROPERTY
VM2 Rank
SciTegic.value.IntegerValue
86

@<SCITEGIC>MOL_PROPERTY
Conf_Id
SciTegic.value.IntegerValue
996

@<SCITEGIC>MOL_PROPERTY
Probability
SciTegic.value.DoubleValue
0.02

@<SCITEGIC>MOL_PROPERTY
Sum Probability
SciTegic.value.DoubleValue
99.85

@<SCITEGIC>MOL_PROPERTY
Delta G
SciTegic.value.DoubleValue
3.344

@<SCITEGIC>MOL_PROPERTY
G
SciTegic.value.DoubleValue
65.419

@<SCITEGIC>MOL_PROPERTY
E
SciTegic.value.DoubleValue
32.133

@<SCITEGIC>MOL_PROPERTY
-TS
SciTegic.value.DoubleValue
33.286

@<SCITEGIC>MOL_PROPERTY
U+W
SciTegic.value.DoubleValue
11.566

@<SCITEGIC>MOL_PROPERTY
U
SciTegic.value.DoubleValue
12.383

@<SCITEGIC>MOL_PROPERTY
W
SciTegic.value.DoubleValue
-0.817

@<SCITEGIC>MOL_PROPERTY
W(PB)
SciTegic.value.DoubleValue
-2.935

@<SCITEGIC>MOL_PROPERTY
W(SA)
SciTegic.value.DoubleValue
2.118

@<SCITEGIC>MOL_PROPERTY
Valence
SciTegic.value.DoubleValue
20.110

@<SCITEGIC>MOL_PROPERTY
Coulomb
SciTegic.value.DoubleValue
-10.324

@<SCITEGIC>MOL_PROPERTY
VdW
SciTegic.value.DoubleValue
2.596

@<SCITEGIC>MOL_PROPERTY
VdW6
SciTegic.value.DoubleValue
-14.356

@<SCITEGIC>MOL_PROPERTY
VdW12
SciTegic.value.DoubleValue
16.952

@<SCITEGIC>MOL_PROPERTY
Bond
SciTegic.value.DoubleValue
0.540

@<SCITEGIC>MOL_PROPERTY
Angle
SciTegic.value.DoubleValue
9.254

@<SCITEGIC>MOL_PROPERTY
Pdih
SciTegic.value.DoubleValue
10.316

@<SCITEGIC>MOL_PROPERTY
Idih
SciTegic.value.DoubleValue
0.000

@<SCITEGIC>MOL_PROPERTY
Tether
SciTegic.value.DoubleValue
0.000

@<TRIPOS>MOLECULE
guest-s17_vm2.mol2 : vm2 ligand conformer 87
          25          25           1
SMALL
USER_CHARGES
 
@<TRIPOS>ATOM
       1    C1      19.625883   18.947685   21.182677 C.3        1 MOL1        -0.1684
       2    H1      18.816340   18.734272   21.889337 H          1 MOL1         0.0833
       3    H2      19.172438   18.825545   20.189733 H          1 MOL1         0.0833
       4    C2      20.745722   17.890036   21.314352 C.3        1 MOL1        -0.1684
       5    H3      20.287351   16.892551   21.351255 H          1 MOL1         0.0833
       6    H4      21.346973   17.910526   20.395252 H          1 MOL1         0.0833
       7    C3      21.707395   18.053072   22.515185 C.3        1 MOL1        -0.1684
       8    H5      22.286052   18.978833   22.424652 H          1 MOL1         0.0833
       9    H6      22.454659   17.252032   22.434552 H          1 MOL1         0.0833
      10    C4      21.058526   17.935550   23.920339 C.3        1 MOL1        -0.1760
      11    H7      20.448119   17.023851   23.963221 H          1 MOL1         0.0833
      12    H8      21.878056   17.762826   24.629845 H          1 MOL1         0.0833
      13    C5      20.237183   19.132353   24.478769 C.3        1 MOL1         0.1219
      14    H9      20.488490   19.168867   25.548824 H          1 MOL1         0.0790
      15    C6      20.572558   20.546831   23.926787 C.3        1 MOL1        -0.1760
      16    H10     20.376314   21.252609   24.744361 H          1 MOL1         0.0833
      17    H11     21.649466   20.637358   23.742876 H          1 MOL1         0.0833
      18    C7      19.772633   21.061356   22.694801 C.3        1 MOL1        -0.1684
      19    H12     19.973936   22.137179   22.601600 H          1 MOL1         0.0833
      20    H13     18.693825   20.986936   22.884629 H          1 MOL1         0.0833
      21    C8      20.101708   20.413970   21.326481 C.3        1 MOL1        -0.1684
      22    H14     21.171530   20.507561   21.099249 H          1 MOL1         0.0833
      23    H15     19.589395   21.006411   20.556225 H          1 MOL1         0.0833
      24    O1      18.842392   18.862147   24.400609 O.3        1 MOL1        -0.5508
      25    H16     18.387906   19.678841   24.688915 H          1 MOL1         0.3780
@<TRIPOS>BOND
    1     1     2    1
    2     1     3    1
    3     1     4    1
    4     4     5    1
    5     4     6    1
    6     4     7    1
    7     7     8    1
    8     7     9    1
    9     7    10    1
   10    10    11    1
   11    10    12    1
   12    10    13    1
   13    13    14    1
   14    13    15    1
   15    15    16    1
   16    15    17    1
   17    15    18    1
   18    18    19    1
   19    18    20    1
   20     1    21    1
   21    18    21    1
   22    21    22    1
   23    21    23    1
   24    13    24    1
   25    24    25    1
@<TRIPOS>SUBSTRUCTURE
       1 MOL1            1 RESIDUE      1      MOL     
@<SCITEGIC>MOL_PROPERTY
VM2 Rank
SciTegic.value.IntegerValue
87

@<SCITEGIC>MOL_PROPERTY
Conf_Id
SciTegic.value.IntegerValue
2007

@<SCITEGIC>MOL_PROPERTY
Probability
SciTegic.value.DoubleValue
0.01

@<SCITEGIC>MOL_PROPERTY
Sum Probability
SciTegic.value.DoubleValue
99.86

@<SCITEGIC>MOL_PROPERTY
Delta G
SciTegic.value.DoubleValue
3.506

@<SCITEGIC>MOL_PROPERTY
G
SciTegic.value.DoubleValue
65.581

@<SCITEGIC>MOL_PROPERTY
E
SciTegic.value.DoubleValue
32.985

@<SCITEGIC>MOL_PROPERTY
-TS
SciTegic.value.DoubleValue
32.596

@<SCITEGIC>MOL_PROPERTY
U+W
SciTegic.value.DoubleValue
12.418

@<SCITEGIC>MOL_PROPERTY
U
SciTegic.value.DoubleValue
14.381

@<SCITEGIC>MOL_PROPERTY
W
SciTegic.value.DoubleValue
-1.963

@<SCITEGIC>MOL_PROPERTY
W(PB)
SciTegic.value.DoubleValue
-4.079

@<SCITEGIC>MOL_PROPERTY
W(SA)
SciTegic.value.DoubleValue
2.116

@<SCITEGIC>MOL_PROPERTY
Valence
SciTegic.value.DoubleValue
18.713

@<SCITEGIC>MOL_PROPERTY
Coulomb
SciTegic.value.DoubleValue
-6.942

@<SCITEGIC>MOL_PROPERTY
VdW
SciTegic.value.DoubleValue
2.610

@<SCITEGIC>MOL_PROPERTY
VdW6
SciTegic.value.DoubleValue
-13.510

@<SCITEGIC>MOL_PROPERTY
VdW12
SciTegic.value.DoubleValue
16.120

@<SCITEGIC>MOL_PROPERTY
Bond
SciTegic.value.DoubleValue
0.503

@<SCITEGIC>MOL_PROPERTY
Angle
SciTegic.value.DoubleValue
7.223

@<SCITEGIC>MOL_PROPERTY
Pdih
SciTegic.value.DoubleValue
10.987

@<SCITEGIC>MOL_PROPERTY
Idih
SciTegic.value.DoubleValue
0.000

@<SCITEGIC>MOL_PROPERTY
Tether
SciTegic.value.DoubleValue
0.000

@<TRIPOS>MOLECULE
guest-s17_vm2.mol2 : vm2 ligand conformer 88
          25          25           1
SMALL
USER_CHARGES
 
@<TRIPOS>ATOM
       1    C1      19.610831   18.886491   21.199325 C.3        1 MOL1        -0.1684
       2    H1      19.186309   18.636728   20.217556 H          1 MOL1         0.0833
       3    H2      18.899643   18.477170   21.925230 H          1 MOL1         0.0833
       4    C2      20.985854   18.187043   21.330326 C.3        1 MOL1        -0.1684
       5    H3      21.028402   17.393538   20.571850 H          1 MOL1         0.0833
       6    H4      21.804960   18.872717   21.077684 H          1 MOL1         0.0833
       7    C3      21.234290   17.518405   22.705426 C.3        1 MOL1        -0.1684
       8    H5      22.135082   16.897619   22.606404 H          1 MOL1         0.0833
       9    H6      20.421705   16.812230   22.920882 H          1 MOL1         0.0833
      10    C4      21.458388   18.467326   23.918577 C.3        1 MOL1        -0.1760
      11    H7      21.832441   17.842336   24.739877 H          1 MOL1         0.0833
      12    H8      22.281098   19.160865   23.709050 H          1 MOL1         0.0833
      13    C5      20.231520   19.240474   24.479780 C.3        1 MOL1         0.1219
      14    H9      20.453870   19.409310   25.543529 H          1 MOL1         0.0790
      15    C6      19.957414   20.658643   23.903195 C.3        1 MOL1        -0.1760
      16    H10     18.882202   20.873489   23.961441 H          1 MOL1         0.0833
      17    H11     20.427654   21.371099   24.593227 H          1 MOL1         0.0833
      18    C7      20.474974   21.011161   22.482927 C.3        1 MOL1        -0.1684
      19    H12     21.536819   20.763160   22.377776 H          1 MOL1         0.0833
      20    H13     20.436412   22.104581   22.385377 H          1 MOL1         0.0833
      21    C8      19.658353   20.428076   21.305413 C.3        1 MOL1        -0.1684
      22    H14     20.082187   20.823425   20.372282 H          1 MOL1         0.0833
      23    H15     18.630020   20.810957   21.354157 H          1 MOL1         0.0833
      24    O1      19.052375   18.445381   24.435033 O.3        1 MOL1        -0.5508
      25    H16     19.312851   17.550944   24.733034 H          1 MOL1         0.3780
@<TRIPOS>BOND
    1     1     2    1
    2     1     3    1
    3     1     4    1
    4     4     5    1
    5     4     6    1
    6     4     7    1
    7     7     8    1
    8     7     9    1
    9     7    10    1
   10    10    11    1
   11    10    12    1
   12    10    13    1
   13    13    14    1
   14    13    15    1
   15    15    16    1
   16    15    17    1
   17    15    18    1
   18    18    19    1
   19    18    20    1
   20     1    21    1
   21    18    21    1
   22    21    22    1
   23    21    23    1
   24    13    24    1
   25    24    25    1
@<TRIPOS>SUBSTRUCTURE
       1 MOL1            1 RESIDUE      1      MOL     
@<SCITEGIC>MOL_PROPERTY
VM2 Rank
SciTegic.value.IntegerValue
88

@<SCITEGIC>MOL_PROPERTY
Conf_Id
SciTegic.value.IntegerValue
1226

@<SCITEGIC>MOL_PROPERTY
Probability
SciTegic.value.DoubleValue
0.01

@<SCITEGIC>MOL_PROPERTY
Sum Probability
SciTegic.value.DoubleValue
99.87

@<SCITEGIC>MOL_PROPERTY
Delta G
SciTegic.value.DoubleValue
3.525

@<SCITEGIC>MOL_PROPERTY
G
SciTegic.value.DoubleValue
65.601

@<SCITEGIC>MOL_PROPERTY
E
SciTegic.value.DoubleValue
33.004

@<SCITEGIC>MOL_PROPERTY
-TS
SciTegic.value.DoubleValue
32.597

@<SCITEGIC>MOL_PROPERTY
U+W
SciTegic.value.DoubleValue
12.436

@<SCITEGIC>MOL_PROPERTY
U
SciTegic.value.DoubleValue
14.380

@<SCITEGIC>MOL_PROPERTY
W
SciTegic.value.DoubleValue
-1.944

@<SCITEGIC>MOL_PROPERTY
W(PB)
SciTegic.value.DoubleValue
-4.045

@<SCITEGIC>MOL_PROPERTY
W(SA)
SciTegic.value.DoubleValue
2.101

@<SCITEGIC>MOL_PROPERTY
Valence
SciTegic.value.DoubleValue
18.713

@<SCITEGIC>MOL_PROPERTY
Coulomb
SciTegic.value.DoubleValue
-6.942

@<SCITEGIC>MOL_PROPERTY
VdW
SciTegic.value.DoubleValue
2.610

@<SCITEGIC>MOL_PROPERTY
VdW6
SciTegic.value.DoubleValue
-13.510

@<SCITEGIC>MOL_PROPERTY
VdW12
SciTegic.value.DoubleValue
16.120

@<SCITEGIC>MOL_PROPERTY
Bond
SciTegic.value.DoubleValue
0.503

@<SCITEGIC>MOL_PROPERTY
Angle
SciTegic.value.DoubleValue
7.222

@<SCITEGIC>MOL_PROPERTY
Pdih
SciTegic.value.DoubleValue
10.987

@<SCITEGIC>MOL_PROPERTY
Idih
SciTegic.value.DoubleValue
0.000

@<SCITEGIC>MOL_PROPERTY
Tether
SciTegic.value.DoubleValue
0.000

@<TRIPOS>MOLECULE
guest-s17_vm2.mol2 : vm2 ligand conformer 89
          25          25           1
SMALL
USER_CHARGES
 
@<TRIPOS>ATOM
       1    C1      20.797058   19.513405   20.989660 C.3        1 MOL1        -0.1684
       2    H1      20.862326   19.719357   19.912667 H          1 MOL1         0.0833
       3    H2      21.608804   20.100069   21.434097 H          1 MOL1         0.0833
       4    C2      21.066418   18.004297   21.204823 C.3        1 MOL1        -0.1684
       5    H3      20.514329   17.439721   20.441178 H          1 MOL1         0.0833
       6    H4      22.129610   17.811066   21.007663 H          1 MOL1         0.0833
       7    C3      20.695621   17.416683   22.592294 C.3        1 MOL1        -0.1684
       8    H5      21.078977   16.387625   22.613246 H          1 MOL1         0.0833
       9    H6      19.608705   17.305346   22.687835 H          1 MOL1         0.0833
      10    C4      21.277088   18.160817   23.825856 C.3        1 MOL1        -0.1760
      11    H7      21.454267   17.403806   24.600748 H          1 MOL1         0.0833
      12    H8      22.269574   18.563415   23.586981 H          1 MOL1         0.0833
      13    C5      20.400854   19.260857   24.490966 C.3        1 MOL1         0.1219
      14    H9      20.822613   19.392511   25.497988 H          1 MOL1         0.0790
      15    C6      20.477720   20.662391   23.833572 C.3        1 MOL1        -0.1760
      16    H10     20.311037   21.404379   24.625220 H          1 MOL1         0.0833
      17    H11     21.507690   20.844491   23.504778 H          1 MOL1         0.0833
      18    C7      19.484604   20.992975   22.682300 C.3        1 MOL1        -0.1684
      19    H12     19.752159   21.980285   22.282063 H          1 MOL1         0.0833
      20    H13     18.474407   21.107238   23.097727 H          1 MOL1         0.0833
      21    C8      19.415796   19.992488   21.503159 C.3        1 MOL1        -0.1684
      22    H14     18.782736   19.142033   21.781462 H          1 MOL1         0.0833
      23    H15     18.881441   20.478437   20.675652 H          1 MOL1         0.0833
      24    O1      19.048841   18.839087   24.637370 O.3        1 MOL1        -0.5508
      25    H16     18.545374   19.627410   24.922934 H          1 MOL1         0.3780
@<TRIPOS>BOND
    1     1     2    1
    2     1     3    1
    3     1     4    1
    4     4     5    1
    5     4     6    1
    6     4     7    1
    7     7     8    1
    8     7     9    1
    9     7    10    1
   10    10    11    1
   11    10    12    1
   12    10    13    1
   13    13    14    1
   14    13    15    1
   15    15    16    1
   16    15    17    1
   17    15    18    1
   18    18    19    1
   19    18    20    1
   20     1    21    1
   21    18    21    1
   22    21    22    1
   23    21    23    1
   24    13    24    1
   25    24    25    1
@<TRIPOS>SUBSTRUCTURE
       1 MOL1            1 RESIDUE      1      MOL     
@<SCITEGIC>MOL_PROPERTY
VM2 Rank
SciTegic.value.IntegerValue
89

@<SCITEGIC>MOL_PROPERTY
Conf_Id
SciTegic.value.IntegerValue
1348

@<SCITEGIC>MOL_PROPERTY
Probability
SciTegic.value.DoubleValue
0.01

@<SCITEGIC>MOL_PROPERTY
Sum Probability
SciTegic.value.DoubleValue
99.89

@<SCITEGIC>MOL_PROPERTY
Delta G
SciTegic.value.DoubleValue
3.532

@<SCITEGIC>MOL_PROPERTY
G
SciTegic.value.DoubleValue
65.607

@<SCITEGIC>MOL_PROPERTY
E
SciTegic.value.DoubleValue
33.220

@<SCITEGIC>MOL_PROPERTY
-TS
SciTegic.value.DoubleValue
32.387

@<SCITEGIC>MOL_PROPERTY
U+W
SciTegic.value.DoubleValue
12.653

@<SCITEGIC>MOL_PROPERTY
U
SciTegic.value.DoubleValue
14.604

@<SCITEGIC>MOL_PROPERTY
W
SciTegic.value.DoubleValue
-1.952

@<SCITEGIC>MOL_PROPERTY
W(PB)
SciTegic.value.DoubleValue
-4.077

@<SCITEGIC>MOL_PROPERTY
W(SA)
SciTegic.value.DoubleValue
2.125

@<SCITEGIC>MOL_PROPERTY
Valence
SciTegic.value.DoubleValue
18.883

@<SCITEGIC>MOL_PROPERTY
Coulomb
SciTegic.value.DoubleValue
-7.234

@<SCITEGIC>MOL_PROPERTY
VdW
SciTegic.value.DoubleValue
2.956

@<SCITEGIC>MOL_PROPERTY
VdW6
SciTegic.value.DoubleValue
-13.441

@<SCITEGIC>MOL_PROPERTY
VdW12
SciTegic.value.DoubleValue
16.397

@<SCITEGIC>MOL_PROPERTY
Bond
SciTegic.value.DoubleValue
0.515

@<SCITEGIC>MOL_PROPERTY
Angle
SciTegic.value.DoubleValue
6.286

@<SCITEGIC>MOL_PROPERTY
Pdih
SciTegic.value.DoubleValue
12.082

@<SCITEGIC>MOL_PROPERTY
Idih
SciTegic.value.DoubleValue
0.000

@<SCITEGIC>MOL_PROPERTY
Tether
SciTegic.value.DoubleValue
0.000

@<TRIPOS>MOLECULE
guest-s17_vm2.mol2 : vm2 ligand conformer 90
          25          25           1
SMALL
USER_CHARGES
 
@<TRIPOS>ATOM
       1    C1      20.129580   19.131979   20.677933 C.3        1 MOL1        -0.1684
       2    H1      20.819363   19.041795   19.827662 H          1 MOL1         0.0833
       3    H2      19.120497   19.064731   20.248967 H          1 MOL1         0.0833
       4    C2      20.343039   17.916306   21.611985 C.3        1 MOL1        -0.1684
       5    H3      19.433125   17.723407   22.187545 H          1 MOL1         0.0833
       6    H4      20.459385   17.024785   20.980600 H          1 MOL1         0.0833
       7    C3      21.577225   18.024839   22.540719 C.3        1 MOL1        -0.1684
       8    H5      22.204454   18.882541   22.272800 H          1 MOL1         0.0833
       9    H6      22.217066   17.149365   22.365043 H          1 MOL1         0.0833
      10    C4      21.244797   18.068378   24.054571 C.3        1 MOL1        -0.1760
      11    H7      20.882608   17.079750   24.366840 H          1 MOL1         0.0833
      12    H8      22.189567   18.213355   24.594344 H          1 MOL1         0.0833
      13    C5      20.242770   19.139386   24.563422 C.3        1 MOL1         0.1219
      14    H9      20.476077   19.269129   25.630133 H          1 MOL1         0.0790
      15    C6      20.344199   20.548123   23.922039 C.3        1 MOL1        -0.1760
      16    H10     19.960940   21.250002   24.674327 H          1 MOL1         0.0833
      17    H11     21.399450   20.821093   23.794335 H          1 MOL1         0.0833
      18    C7      19.549226   20.820993   22.607537 C.3        1 MOL1        -0.1684
      19    H12     19.317482   21.894981   22.606463 H          1 MOL1         0.0833
      20    H13     18.569970   20.326775   22.598224 H          1 MOL1         0.0833
      21    C8      20.321413   20.541627   21.295386 C.3        1 MOL1        -0.1684
      22    H14     21.387514   20.762645   21.432349 H          1 MOL1         0.0833
      23    H15     19.981704   21.267347   20.543676 H          1 MOL1         0.0833
      24    O1      18.911750   18.651369   24.486409 O.3        1 MOL1        -0.5508
      25    H16     18.699174   18.652798   23.532543 H          1 MOL1         0.3780
@<TRIPOS>BOND
    1     1     2    1
    2     1     3    1
    3     1     4    1
    4     4     5    1
    5     4     6    1
    6     4     7    1
    7     7     8    1
    8     7     9    1
    9     7    10    1
   10    10    11    1
   11    10    12    1
   12    10    13    1
   13    13    14    1
   14    13    15    1
   15    15    16    1
   16    15    17    1
   17    15    18    1
   18    18    19    1
   19    18    20    1
   20     1    21    1
   21    18    21    1
   22    21    22    1
   23    21    23    1
   24    13    24    1
   25    24    25    1
@<TRIPOS>SUBSTRUCTURE
       1 MOL1            1 RESIDUE      1      MOL     
@<SCITEGIC>MOL_PROPERTY
VM2 Rank
SciTegic.value.IntegerValue
90

@<SCITEGIC>MOL_PROPERTY
Conf_Id
SciTegic.value.IntegerValue
1191

@<SCITEGIC>MOL_PROPERTY
Probability
SciTegic.value.DoubleValue
0.01

@<SCITEGIC>MOL_PROPERTY
Sum Probability
SciTegic.value.DoubleValue
99.90

@<SCITEGIC>MOL_PROPERTY
Delta G
SciTegic.value.DoubleValue
3.596

@<SCITEGIC>MOL_PROPERTY
G
SciTegic.value.DoubleValue
65.672

@<SCITEGIC>MOL_PROPERTY
E
SciTegic.value.DoubleValue
33.221

@<SCITEGIC>MOL_PROPERTY
-TS
SciTegic.value.DoubleValue
32.451

@<SCITEGIC>MOL_PROPERTY
U+W
SciTegic.value.DoubleValue
12.653

@<SCITEGIC>MOL_PROPERTY
U
SciTegic.value.DoubleValue
13.786

@<SCITEGIC>MOL_PROPERTY
W
SciTegic.value.DoubleValue
-1.133

@<SCITEGIC>MOL_PROPERTY
W(PB)
SciTegic.value.DoubleValue
-3.259

@<SCITEGIC>MOL_PROPERTY
W(SA)
SciTegic.value.DoubleValue
2.127

@<SCITEGIC>MOL_PROPERTY
Valence
SciTegic.value.DoubleValue
20.491

@<SCITEGIC>MOL_PROPERTY
Coulomb
SciTegic.value.DoubleValue
-9.471

@<SCITEGIC>MOL_PROPERTY
VdW
SciTegic.value.DoubleValue
2.766

@<SCITEGIC>MOL_PROPERTY
VdW6
SciTegic.value.DoubleValue
-13.485

@<SCITEGIC>MOL_PROPERTY
VdW12
SciTegic.value.DoubleValue
16.252

@<SCITEGIC>MOL_PROPERTY
Bond
SciTegic.value.DoubleValue
0.508

@<SCITEGIC>MOL_PROPERTY
Angle
SciTegic.value.DoubleValue
6.903

@<SCITEGIC>MOL_PROPERTY
Pdih
SciTegic.value.DoubleValue
13.080

@<SCITEGIC>MOL_PROPERTY
Idih
SciTegic.value.DoubleValue
0.000

@<SCITEGIC>MOL_PROPERTY
Tether
SciTegic.value.DoubleValue
0.000

@<TRIPOS>MOLECULE
guest-s17_vm2.mol2 : vm2 ligand conformer 91
          25          25           1
SMALL
USER_CHARGES
 
@<TRIPOS>ATOM
       1    C1      20.073219   19.084914   20.685004 C.3        1 MOL1        -0.1684
       2    H1      20.471697   19.618927   19.811541 H          1 MOL1         0.0833
       3    H2      19.306944   18.403393   20.291133 H          1 MOL1         0.0833
       4    C2      21.227243   18.246995   21.294325 C.3        1 MOL1        -0.1684
       5    H3      21.487300   17.477746   20.554213 H          1 MOL1         0.0833
       6    H4      22.135830   18.854177   21.394225 H          1 MOL1         0.0833
       7    C3      20.917177   17.532725   22.632135 C.3        1 MOL1        -0.1684
       8    H5      21.519594   16.613914   22.638191 H          1 MOL1         0.0833
       9    H6      19.878028   17.182255   22.657056 H          1 MOL1         0.0833
      10    C4      21.313067   18.321791   23.918605 C.3        1 MOL1        -0.1760
      11    H7      21.562954   17.574414   24.683094 H          1 MOL1         0.0833
      12    H8      22.244473   18.878434   23.754265 H          1 MOL1         0.0833
      13    C5      20.254361   19.253675   24.564313 C.3        1 MOL1         0.1219
      14    H9      20.536979   19.354388   25.622198 H          1 MOL1         0.0790
      15    C6      20.181530   20.706481   24.022003 C.3        1 MOL1        -0.1760
      16    H10     19.230987   21.149940   24.347412 H          1 MOL1         0.0833
      17    H11     20.960838   21.290368   24.528676 H          1 MOL1         0.0833
      18    C7      20.346063   20.937309   22.497601 C.3        1 MOL1        -0.1684
      19    H12     21.390328   20.775498   22.207467 H          1 MOL1         0.0833
      20    H13     20.166792   22.003037   22.300623 H          1 MOL1         0.0833
      21    C8      19.380077   20.112430   21.612172 C.3        1 MOL1        -0.1684
      22    H14     18.618842   19.613736   22.219008 H          1 MOL1         0.0833
      23    H15     18.810827   20.805740   20.977927 H          1 MOL1         0.0833
      24    O1      18.971263   18.646680   24.533841 O.3        1 MOL1        -0.5508
      25    H16     18.799443   18.471336   23.587913 H          1 MOL1         0.3780
@<TRIPOS>BOND
    1     1     2    1
    2     1     3    1
    3     1     4    1
    4     4     5    1
    5     4     6    1
    6     4     7    1
    7     7     8    1
    8     7     9    1
    9     7    10    1
   10    10    11    1
   11    10    12    1
   12    10    13    1
   13    13    14    1
   14    13    15    1
   15    15    16    1
   16    15    17    1
   17    15    18    1
   18    18    19    1
   19    18    20    1
   20     1    21    1
   21    18    21    1
   22    21    22    1
   23    21    23    1
   24    13    24    1
   25    24    25    1
@<TRIPOS>SUBSTRUCTURE
       1 MOL1            1 RESIDUE      1      MOL     
@<SCITEGIC>MOL_PROPERTY
VM2 Rank
SciTegic.value.IntegerValue
91

@<SCITEGIC>MOL_PROPERTY
Conf_Id
SciTegic.value.IntegerValue
1662

@<SCITEGIC>MOL_PROPERTY
Probability
SciTegic.value.DoubleValue
0.01

@<SCITEGIC>MOL_PROPERTY
Sum Probability
SciTegic.value.DoubleValue
99.91

@<SCITEGIC>MOL_PROPERTY
Delta G
SciTegic.value.DoubleValue
3.597

@<SCITEGIC>MOL_PROPERTY
G
SciTegic.value.DoubleValue
65.672

@<SCITEGIC>MOL_PROPERTY
E
SciTegic.value.DoubleValue
33.221

@<SCITEGIC>MOL_PROPERTY
-TS
SciTegic.value.DoubleValue
32.451

@<SCITEGIC>MOL_PROPERTY
U+W
SciTegic.value.DoubleValue
12.653

@<SCITEGIC>MOL_PROPERTY
U
SciTegic.value.DoubleValue
13.786

@<SCITEGIC>MOL_PROPERTY
W
SciTegic.value.DoubleValue
-1.133

@<SCITEGIC>MOL_PROPERTY
W(PB)
SciTegic.value.DoubleValue
-3.267

@<SCITEGIC>MOL_PROPERTY
W(SA)
SciTegic.value.DoubleValue
2.134

@<SCITEGIC>MOL_PROPERTY
Valence
SciTegic.value.DoubleValue
20.490

@<SCITEGIC>MOL_PROPERTY
Coulomb
SciTegic.value.DoubleValue
-9.471

@<SCITEGIC>MOL_PROPERTY
VdW
SciTegic.value.DoubleValue
2.766

@<SCITEGIC>MOL_PROPERTY
VdW6
SciTegic.value.DoubleValue
-13.486

@<SCITEGIC>MOL_PROPERTY
VdW12
SciTegic.value.DoubleValue
16.252

@<SCITEGIC>MOL_PROPERTY
Bond
SciTegic.value.DoubleValue
0.508

@<SCITEGIC>MOL_PROPERTY
Angle
SciTegic.value.DoubleValue
6.902

@<SCITEGIC>MOL_PROPERTY
Pdih
SciTegic.value.DoubleValue
13.080

@<SCITEGIC>MOL_PROPERTY
Idih
SciTegic.value.DoubleValue
0.000

@<SCITEGIC>MOL_PROPERTY
Tether
SciTegic.value.DoubleValue
0.000

@<TRIPOS>MOLECULE
guest-s17_vm2.mol2 : vm2 ligand conformer 92
          25          25           1
SMALL
USER_CHARGES
 
@<TRIPOS>ATOM
       1    C1      20.896596   19.360413   20.999304 C.3        1 MOL1        -0.1684
       2    H1      21.117907   19.267724   19.927387 H          1 MOL1         0.0833
       3    H2      21.865831   19.567167   21.466722 H          1 MOL1         0.0833
       4    C2      20.309119   18.017890   21.502489 C.3        1 MOL1        -0.1684
       5    H3      19.247393   18.122637   21.753829 H          1 MOL1         0.0833
       6    H4      20.329205   17.292994   20.677566 H          1 MOL1         0.0833
       7    C3      21.062131   17.396774   22.704153 C.3        1 MOL1        -0.1684
       8    H5      21.972188   16.909736   22.328918 H          1 MOL1         0.0833
       9    H6      20.442288   16.589790   23.118210 H          1 MOL1         0.0833
      10    C4      21.475809   18.354272   23.858686 C.3        1 MOL1        -0.1760
      11    H7      21.883426   17.727335   24.662097 H          1 MOL1         0.0833
      12    H8      22.319059   18.980880   23.545520 H          1 MOL1         0.0833
      13    C5      20.384748   19.253972   24.493471 C.3        1 MOL1         0.1219
      14    H9      20.756096   19.487836   25.501796 H          1 MOL1         0.0790
      15    C6      20.176844   20.635867   23.810111 C.3        1 MOL1        -0.1760
      16    H10     19.739829   21.294916   24.571548 H          1 MOL1         0.0833
      17    H11     21.149577   21.085226   23.572562 H          1 MOL1         0.0833
      18    C7      19.248828   20.699519   22.565938 C.3        1 MOL1        -0.1684
      19    H12     18.435478   19.968806   22.649116 H          1 MOL1         0.0833
      20    H13     18.744017   21.675076   22.575131 H          1 MOL1         0.0833
      21    C8      19.955061   20.574202   21.190193 C.3        1 MOL1        -0.1684
      22    H14     19.178981   20.539422   20.413512 H          1 MOL1         0.0833
      23    H15     20.528730   21.491012   20.997845 H          1 MOL1         0.0833
      24    O1      19.154864   18.550091   24.635655 O.3        1 MOL1        -0.5508
      25    H16     18.504976   19.195237   24.979746 H          1 MOL1         0.3780
@<TRIPOS>BOND
    1     1     2    1
    2     1     3    1
    3     1     4    1
    4     4     5    1
    5     4     6    1
    6     4     7    1
    7     7     8    1
    8     7     9    1
    9     7    10    1
   10    10    11    1
   11    10    12    1
   12    10    13    1
   13    13    14    1
   14    13    15    1
   15    15    16    1
   16    15    17    1
   17    15    18    1
   18    18    19    1
   19    18    20    1
   20     1    21    1
   21    18    21    1
   22    21    22    1
   23    21    23    1
   24    13    24    1
   25    24    25    1
@<TRIPOS>SUBSTRUCTURE
       1 MOL1            1 RESIDUE      1      MOL     
@<SCITEGIC>MOL_PROPERTY
VM2 Rank
SciTegic.value.IntegerValue
92

@<SCITEGIC>MOL_PROPERTY
Conf_Id
SciTegic.value.IntegerValue
1021

@<SCITEGIC>MOL_PROPERTY
Probability
SciTegic.value.DoubleValue
0.01

@<SCITEGIC>MOL_PROPERTY
Sum Probability
SciTegic.value.DoubleValue
99.92

@<SCITEGIC>MOL_PROPERTY
Delta G
SciTegic.value.DoubleValue
3.875

@<SCITEGIC>MOL_PROPERTY
G
SciTegic.value.DoubleValue
65.950

@<SCITEGIC>MOL_PROPERTY
E
SciTegic.value.DoubleValue
33.502

@<SCITEGIC>MOL_PROPERTY
-TS
SciTegic.value.DoubleValue
32.448

@<SCITEGIC>MOL_PROPERTY
U+W
SciTegic.value.DoubleValue
12.934

@<SCITEGIC>MOL_PROPERTY
U
SciTegic.value.DoubleValue
14.863

@<SCITEGIC>MOL_PROPERTY
W
SciTegic.value.DoubleValue
-1.929

@<SCITEGIC>MOL_PROPERTY
W(PB)
SciTegic.value.DoubleValue
-4.063

@<SCITEGIC>MOL_PROPERTY
W(SA)
SciTegic.value.DoubleValue
2.134

@<SCITEGIC>MOL_PROPERTY
Valence
SciTegic.value.DoubleValue
18.821

@<SCITEGIC>MOL_PROPERTY
Coulomb
SciTegic.value.DoubleValue
-6.904

@<SCITEGIC>MOL_PROPERTY
VdW
SciTegic.value.DoubleValue
2.946

@<SCITEGIC>MOL_PROPERTY
VdW6
SciTegic.value.DoubleValue
-13.395

@<SCITEGIC>MOL_PROPERTY
VdW12
SciTegic.value.DoubleValue
16.340

@<SCITEGIC>MOL_PROPERTY
Bond
SciTegic.value.DoubleValue
0.514

@<SCITEGIC>MOL_PROPERTY
Angle
SciTegic.value.DoubleValue
6.249

@<SCITEGIC>MOL_PROPERTY
Pdih
SciTegic.value.DoubleValue
12.058

@<SCITEGIC>MOL_PROPERTY
Idih
SciTegic.value.DoubleValue
0.000

@<SCITEGIC>MOL_PROPERTY
Tether
SciTegic.value.DoubleValue
0.000

@<TRIPOS>MOLECULE
guest-s17_vm2.mol2 : vm2 ligand conformer 93
          25          25           1
SMALL
USER_CHARGES
 
@<TRIPOS>ATOM
       1    C1      20.543704   19.202719   20.884788 C.3        1 MOL1        -0.1684
       2    H1      20.289976   19.084625   19.822224 H          1 MOL1         0.0833
       3    H2      21.578338   19.570935   20.895072 H          1 MOL1         0.0833
       4    C2      20.456001   17.796583   21.522959 C.3        1 MOL1        -0.1684
       5    H3      19.410993   17.548190   21.743100 H          1 MOL1         0.0833
       6    H4      20.748601   17.064614   20.757417 H          1 MOL1         0.0833
       7    C3      21.367350   17.539608   22.753962 C.3        1 MOL1        -0.1684
       8    H5      22.379851   17.323868   22.386404 H          1 MOL1         0.0833
       9    H6      21.032944   16.614491   23.243601 H          1 MOL1         0.0833
      10    C4      21.493856   18.658301   23.827247 C.3        1 MOL1        -0.1760
      11    H7      22.096637   18.248874   24.648137 H          1 MOL1         0.0833
      12    H8      22.105724   19.475809   23.431310 H          1 MOL1         0.0833
      13    C5      20.186440   19.213511   24.455789 C.3        1 MOL1         0.1219
      14    H9      20.333761   19.226238   25.545377 H          1 MOL1         0.0790
      15    C6      19.836836   20.668469   24.054184 C.3        1 MOL1        -0.1760
      16    H10     18.773196   20.842848   24.265454 H          1 MOL1         0.0833
      17    H11     20.378106   21.339551   24.733670 H          1 MOL1         0.0833
      18    C7      20.143525   21.131466   22.603505 C.3        1 MOL1        -0.1684
      19    H12     19.720009   22.139700   22.497694 H          1 MOL1         0.0833
      20    H13     21.222846   21.269367   22.460896 H          1 MOL1         0.0833
      21    C8      19.562584   20.256430   21.466531 C.3        1 MOL1        -0.1684
      22    H14     19.308168   20.937993   20.643017 H          1 MOL1         0.0833
      23    H15     18.609201   19.801062   21.764863 H          1 MOL1         0.0833
      24    O1      19.073702   18.375913   24.191036 O.3        1 MOL1        -0.5508
      25    H16     19.045790   18.327418   23.215789 H          1 MOL1         0.3780
@<TRIPOS>BOND
    1     1     2    1
    2     1     3    1
    3     1     4    1
    4     4     5    1
    5     4     6    1
    6     4     7    1
    7     7     8    1
    8     7     9    1
    9     7    10    1
   10    10    11    1
   11    10    12    1
   12    10    13    1
   13    13    14    1
   14    13    15    1
   15    15    16    1
   16    15    17    1
   17    15    18    1
   18    18    19    1
   19    18    20    1
   20     1    21    1
   21    18    21    1
   22    21    22    1
   23    21    23    1
   24    13    24    1
   25    24    25    1
@<TRIPOS>SUBSTRUCTURE
       1 MOL1            1 RESIDUE      1      MOL     
@<SCITEGIC>MOL_PROPERTY
VM2 Rank
SciTegic.value.IntegerValue
93

@<SCITEGIC>MOL_PROPERTY
Conf_Id
SciTegic.value.IntegerValue
1304

@<SCITEGIC>MOL_PROPERTY
Probability
SciTegic.value.DoubleValue
0.01

@<SCITEGIC>MOL_PROPERTY
Sum Probability
SciTegic.value.DoubleValue
99.92

@<SCITEGIC>MOL_PROPERTY
Delta G
SciTegic.value.DoubleValue
3.933

@<SCITEGIC>MOL_PROPERTY
G
SciTegic.value.DoubleValue
66.008

@<SCITEGIC>MOL_PROPERTY
E
SciTegic.value.DoubleValue
33.364

@<SCITEGIC>MOL_PROPERTY
-TS
SciTegic.value.DoubleValue
32.644

@<SCITEGIC>MOL_PROPERTY
U+W
SciTegic.value.DoubleValue
12.797

@<SCITEGIC>MOL_PROPERTY
U
SciTegic.value.DoubleValue
13.787

@<SCITEGIC>MOL_PROPERTY
W
SciTegic.value.DoubleValue
-0.990

@<SCITEGIC>MOL_PROPERTY
W(PB)
SciTegic.value.DoubleValue
-3.084

@<SCITEGIC>MOL_PROPERTY
W(SA)
SciTegic.value.DoubleValue
2.095

@<SCITEGIC>MOL_PROPERTY
Valence
SciTegic.value.DoubleValue
20.983

@<SCITEGIC>MOL_PROPERTY
Coulomb
SciTegic.value.DoubleValue
-10.046

@<SCITEGIC>MOL_PROPERTY
VdW
SciTegic.value.DoubleValue
2.849

@<SCITEGIC>MOL_PROPERTY
VdW6
SciTegic.value.DoubleValue
-14.096

@<SCITEGIC>MOL_PROPERTY
VdW12
SciTegic.value.DoubleValue
16.945

@<SCITEGIC>MOL_PROPERTY
Bond
SciTegic.value.DoubleValue
0.518

@<SCITEGIC>MOL_PROPERTY
Angle
SciTegic.value.DoubleValue
7.297

@<SCITEGIC>MOL_PROPERTY
Pdih
SciTegic.value.DoubleValue
13.168

@<SCITEGIC>MOL_PROPERTY
Idih
SciTegic.value.DoubleValue
0.000

@<SCITEGIC>MOL_PROPERTY
Tether
SciTegic.value.DoubleValue
0.000

@<TRIPOS>MOLECULE
guest-s17_vm2.mol2 : vm2 ligand conformer 94
          25          25           1
SMALL
USER_CHARGES
 
@<TRIPOS>ATOM
       1    C1      20.512262   19.371904   20.888154 C.3        1 MOL1        -0.1684
       2    H1      21.502487   19.845973   20.917620 H          1 MOL1         0.0833
       3    H2      20.272801   19.269915   19.820623 H          1 MOL1         0.0833
       4    C2      20.554815   17.936155   21.478190 C.3        1 MOL1        -0.1684
       5    H3      19.553367   17.582681   21.756512 H          1 MOL1         0.0833
       6    H4      20.876559   17.271051   20.664833 H          1 MOL1         0.0833
       7    C3      21.559853   17.736833   22.638389 C.3        1 MOL1        -0.1684
       8    H5      22.421659   18.404213   22.511188 H          1 MOL1         0.0833
       9    H6      21.978259   16.725081   22.546778 H          1 MOL1         0.0833
      10    C4      20.983788   17.853125   24.076275 C.3        1 MOL1        -0.1760
      11    H7      20.352856   16.977044   24.278224 H          1 MOL1         0.0833
      12    H8      21.826262   17.767115   24.774749 H          1 MOL1         0.0833
      13    C5      20.190219   19.128971   24.454267 C.3        1 MOL1         0.1219
      14    H9      20.279386   19.229944   25.545561 H          1 MOL1         0.0790
      15    C6      20.732143   20.444345   23.830751 C.3        1 MOL1        -0.1760
      16    H10     20.849003   21.164597   24.650763 H          1 MOL1         0.0833
      17    H11     21.751647   20.299774   23.457684 H          1 MOL1         0.0833
      18    C7      19.873386   21.138036   22.734965 C.3        1 MOL1        -0.1684
      19    H12     20.442340   22.006217   22.375306 H          1 MOL1         0.0833
      20    H13     18.971206   21.555735   23.202953 H          1 MOL1         0.0833
      21    C8      19.439796   20.304393   21.498439 C.3        1 MOL1        -0.1684
      22    H14     19.143862   21.024111   20.722634 H          1 MOL1         0.0833
      23    H15     18.522190   19.739634   21.701534 H          1 MOL1         0.0833
      24    O1      18.817738   18.929239   24.160569 O.3        1 MOL1        -0.5508
      25    H16     18.784932   18.938564   23.184313 H          1 MOL1         0.3780
@<TRIPOS>BOND
    1     1     2    1
    2     1     3    1
    3     1     4    1
    4     4     5    1
    5     4     6    1
    6     4     7    1
    7     7     8    1
    8     7     9    1
    9     7    10    1
   10    10    11    1
   11    10    12    1
   12    10    13    1
   13    13    14    1
   14    13    15    1
   15    15    16    1
   16    15    17    1
   17    15    18    1
   18    18    19    1
   19    18    20    1
   20     1    21    1
   21    18    21    1
   22    21    22    1
   23    21    23    1
   24    13    24    1
   25    24    25    1
@<TRIPOS>SUBSTRUCTURE
       1 MOL1            1 RESIDUE      1      MOL     
@<SCITEGIC>MOL_PROPERTY
VM2 Rank
SciTegic.value.IntegerValue
94

@<SCITEGIC>MOL_PROPERTY
Conf_Id
SciTegic.value.IntegerValue
779

@<SCITEGIC>MOL_PROPERTY
Probability
SciTegic.value.DoubleValue
0.01

@<SCITEGIC>MOL_PROPERTY
Sum Probability
SciTegic.value.DoubleValue
99.93

@<SCITEGIC>MOL_PROPERTY
Delta G
SciTegic.value.DoubleValue
3.963

@<SCITEGIC>MOL_PROPERTY
G
SciTegic.value.DoubleValue
66.038

@<SCITEGIC>MOL_PROPERTY
E
SciTegic.value.DoubleValue
33.394

@<SCITEGIC>MOL_PROPERTY
-TS
SciTegic.value.DoubleValue
32.644

@<SCITEGIC>MOL_PROPERTY
U+W
SciTegic.value.DoubleValue
12.827

@<SCITEGIC>MOL_PROPERTY
U
SciTegic.value.DoubleValue
13.787

@<SCITEGIC>MOL_PROPERTY
W
SciTegic.value.DoubleValue
-0.960

@<SCITEGIC>MOL_PROPERTY
W(PB)
SciTegic.value.DoubleValue
-3.077

@<SCITEGIC>MOL_PROPERTY
W(SA)
SciTegic.value.DoubleValue
2.117

@<SCITEGIC>MOL_PROPERTY
Valence
SciTegic.value.DoubleValue
20.983

@<SCITEGIC>MOL_PROPERTY
Coulomb
SciTegic.value.DoubleValue
-10.046

@<SCITEGIC>MOL_PROPERTY
VdW
SciTegic.value.DoubleValue
2.849

@<SCITEGIC>MOL_PROPERTY
VdW6
SciTegic.value.DoubleValue
-14.095

@<SCITEGIC>MOL_PROPERTY
VdW12
SciTegic.value.DoubleValue
16.945

@<SCITEGIC>MOL_PROPERTY
Bond
SciTegic.value.DoubleValue
0.518

@<SCITEGIC>MOL_PROPERTY
Angle
SciTegic.value.DoubleValue
7.297

@<SCITEGIC>MOL_PROPERTY
Pdih
SciTegic.value.DoubleValue
13.167

@<SCITEGIC>MOL_PROPERTY
Idih
SciTegic.value.DoubleValue
0.000

@<SCITEGIC>MOL_PROPERTY
Tether
SciTegic.value.DoubleValue
0.000

@<TRIPOS>MOLECULE
guest-s17_vm2.mol2 : vm2 ligand conformer 95
          25          25           1
SMALL
USER_CHARGES
 
@<TRIPOS>ATOM
       1    C1      20.086903   19.098078   20.758228 C.3        1 MOL1        -0.1684
       2    H1      20.329940   19.667953   19.851051 H          1 MOL1         0.0833
       3    H2      19.463186   18.260174   20.418707 H          1 MOL1         0.0833
       4    C2      21.424247   18.544027   21.315120 C.3        1 MOL1        -0.1684
       5    H3      21.928057   18.012950   20.496014 H          1 MOL1         0.0833
       6    H4      22.099582   19.377557   21.531012 H          1 MOL1         0.0833
       7    C3      21.351541   17.560146   22.518969 C.3        1 MOL1        -0.1684
       8    H5      22.337762   17.516853   23.000572 H          1 MOL1         0.0833
       9    H6      21.181044   16.554461   22.111137 H          1 MOL1         0.0833
      10    C4      20.264353   17.799260   23.601981 C.3        1 MOL1        -0.1760
      11    H7      19.273867   17.700252   23.148424 H          1 MOL1         0.0833
      12    H8      20.312843   16.955936   24.302984 H          1 MOL1         0.0833
      13    C5      20.366023   19.090739   24.460866 C.3        1 MOL1         0.1219
      14    H9      21.085698   18.878140   25.264392 H          1 MOL1         0.0790
      15    C6      20.856370   20.385621   23.766473 C.3        1 MOL1        -0.1760
      16    H10     20.955915   21.155306   24.543206 H          1 MOL1         0.0833
      17    H11     21.885789   20.235573   23.429614 H          1 MOL1         0.0833
      18    C7      19.985304   20.991822   22.623024 C.3        1 MOL1        -0.1684
      19    H12     20.612324   21.664891   22.022856 H          1 MOL1         0.0833
      20    H13     19.230154   21.638902   23.089782 H          1 MOL1         0.0833
      21    C8      19.232029   20.022226   21.673109 C.3        1 MOL1        -0.1684
      22    H14     18.506746   19.434564   22.243216 H          1 MOL1         0.0833
      23    H15     18.601439   20.632557   21.012191 H          1 MOL1         0.0833
      24    O1      19.097229   19.351082   25.042229 O.3        1 MOL1        -0.5508
      25    H16     18.557596   19.731765   24.320346 H          1 MOL1         0.3780
@<TRIPOS>BOND
    1     1     2    1
    2     1     3    1
    3     1     4    1
    4     4     5    1
    5     4     6    1
    6     4     7    1
    7     7     8    1
    8     7     9    1
    9     7    10    1
   10    10    11    1
   11    10    12    1
   12    10    13    1
   13    13    14    1
   14    13    15    1
   15    15    16    1
   16    15    17    1
   17    15    18    1
   18    18    19    1
   19    18    20    1
   20     1    21    1
   21    18    21    1
   22    21    22    1
   23    21    23    1
   24    13    24    1
   25    24    25    1
@<TRIPOS>SUBSTRUCTURE
       1 MOL1            1 RESIDUE      1      MOL     
@<SCITEGIC>MOL_PROPERTY
VM2 Rank
SciTegic.value.IntegerValue
95

@<SCITEGIC>MOL_PROPERTY
Conf_Id
SciTegic.value.IntegerValue
1666

@<SCITEGIC>MOL_PROPERTY
Probability
SciTegic.value.DoubleValue
0.01

@<SCITEGIC>MOL_PROPERTY
Sum Probability
SciTegic.value.DoubleValue
99.93

@<SCITEGIC>MOL_PROPERTY
Delta G
SciTegic.value.DoubleValue
4.003

@<SCITEGIC>MOL_PROPERTY
G
SciTegic.value.DoubleValue
66.079

@<SCITEGIC>MOL_PROPERTY
E
SciTegic.value.DoubleValue
33.265

@<SCITEGIC>MOL_PROPERTY
-TS
SciTegic.value.DoubleValue
32.814

@<SCITEGIC>MOL_PROPERTY
U+W
SciTegic.value.DoubleValue
12.697

@<SCITEGIC>MOL_PROPERTY
U
SciTegic.value.DoubleValue
14.050

@<SCITEGIC>MOL_PROPERTY
W
SciTegic.value.DoubleValue
-1.353

@<SCITEGIC>MOL_PROPERTY
W(PB)
SciTegic.value.DoubleValue
-3.459

@<SCITEGIC>MOL_PROPERTY
W(SA)
SciTegic.value.DoubleValue
2.106

@<SCITEGIC>MOL_PROPERTY
Valence
SciTegic.value.DoubleValue
19.391

@<SCITEGIC>MOL_PROPERTY
Coulomb
SciTegic.value.DoubleValue
-9.106

@<SCITEGIC>MOL_PROPERTY
VdW
SciTegic.value.DoubleValue
3.764

@<SCITEGIC>MOL_PROPERTY
VdW6
SciTegic.value.DoubleValue
-14.145

@<SCITEGIC>MOL_PROPERTY
VdW12
SciTegic.value.DoubleValue
17.909

@<SCITEGIC>MOL_PROPERTY
Bond
SciTegic.value.DoubleValue
0.723

@<SCITEGIC>MOL_PROPERTY
Angle
SciTegic.value.DoubleValue
9.668

@<SCITEGIC>MOL_PROPERTY
Pdih
SciTegic.value.DoubleValue
9.001

@<SCITEGIC>MOL_PROPERTY
Idih
SciTegic.value.DoubleValue
0.000

@<SCITEGIC>MOL_PROPERTY
Tether
SciTegic.value.DoubleValue
0.000

@<TRIPOS>MOLECULE
guest-s17_vm2.mol2 : vm2 ligand conformer 96
          25          25           1
SMALL
USER_CHARGES
 
@<TRIPOS>ATOM
       1    C1      20.110007   19.109673   20.755518 C.3        1 MOL1        -0.1684
       2    H1      20.706983   18.890962   19.859648 H          1 MOL1         0.0833
       3    H2      19.077820   19.224561   20.398067 H          1 MOL1         0.0833
       4    C2      20.185088   17.860735   21.680927 C.3        1 MOL1        -0.1684
       5    H3      19.251090   17.737086   22.236592 H          1 MOL1         0.0833
       6    H4      20.210472   16.978461   21.026777 H          1 MOL1         0.0833
       7    C3      21.391838   17.754927   22.651717 C.3        1 MOL1        -0.1684
       8    H5      22.321504   17.748312   22.066863 H          1 MOL1         0.0833
       9    H6      21.340318   16.764847   23.124912 H          1 MOL1         0.0833
      10    C4      21.525806   18.813427   23.789849 C.3        1 MOL1        -0.1760
      11    H7      22.142714   18.365746   24.580195 H          1 MOL1         0.0833
      12    H8      22.125413   19.664978   23.456644 H          1 MOL1         0.0833
      13    C5      20.234154   19.345509   24.459076 C.3        1 MOL1         0.1219
      14    H9      20.557543   20.022011   25.263158 H          1 MOL1         0.0790
      15    C6      19.236374   20.147682   23.577661 C.3        1 MOL1        -0.1760
      16    H10     18.494672   19.489020   23.116555 H          1 MOL1         0.0833
      17    H11     18.642448   20.764572   24.264429 H          1 MOL1         0.0833
      18    C7      19.822874   21.096793   22.497255 C.3        1 MOL1        -0.1684
      19    H12     20.457383   21.849772   22.983945 H          1 MOL1         0.0833
      20    H13     18.979167   21.656727   22.071308 H          1 MOL1         0.0833
      21    C8      20.610492   20.468621   21.310822 C.3        1 MOL1        -0.1684
      22    H14     21.676798   20.393485   21.544925 H          1 MOL1         0.0833
      23    H15     20.580789   21.193353   20.485786 H          1 MOL1         0.0833
      24    O1      19.547367   18.245633   25.037175 O.3        1 MOL1        -0.5508
      25    H16     19.468418   17.586242   24.318699 H          1 MOL1         0.3780
@<TRIPOS>BOND
    1     1     2    1
    2     1     3    1
    3     1     4    1
    4     4     5    1
    5     4     6    1
    6     4     7    1
    7     7     8    1
    8     7     9    1
    9     7    10    1
   10    10    11    1
   11    10    12    1
   12    10    13    1
   13    13    14    1
   14    13    15    1
   15    15    16    1
   16    15    17    1
   17    15    18    1
   18    18    19    1
   19    18    20    1
   20     1    21    1
   21    18    21    1
   22    21    22    1
   23    21    23    1
   24    13    24    1
   25    24    25    1
@<TRIPOS>SUBSTRUCTURE
       1 MOL1            1 RESIDUE      1      MOL     
@<SCITEGIC>MOL_PROPERTY
VM2 Rank
SciTegic.value.IntegerValue
96

@<SCITEGIC>MOL_PROPERTY
Conf_Id
SciTegic.value.IntegerValue
784

@<SCITEGIC>MOL_PROPERTY
Probability
SciTegic.value.DoubleValue
0.01

@<SCITEGIC>MOL_PROPERTY
Sum Probability
SciTegic.value.DoubleValue
99.94

@<SCITEGIC>MOL_PROPERTY
Delta G
SciTegic.value.DoubleValue
4.045

@<SCITEGIC>MOL_PROPERTY
G
SciTegic.value.DoubleValue
66.120

@<SCITEGIC>MOL_PROPERTY
E
SciTegic.value.DoubleValue
33.306

@<SCITEGIC>MOL_PROPERTY
-TS
SciTegic.value.DoubleValue
32.814

@<SCITEGIC>MOL_PROPERTY
U+W
SciTegic.value.DoubleValue
12.738

@<SCITEGIC>MOL_PROPERTY
U
SciTegic.value.DoubleValue
14.050

@<SCITEGIC>MOL_PROPERTY
W
SciTegic.value.DoubleValue
-1.312

@<SCITEGIC>MOL_PROPERTY
W(PB)
SciTegic.value.DoubleValue
-3.425

@<SCITEGIC>MOL_PROPERTY
W(SA)
SciTegic.value.DoubleValue
2.113

@<SCITEGIC>MOL_PROPERTY
Valence
SciTegic.value.DoubleValue
19.391

@<SCITEGIC>MOL_PROPERTY
Coulomb
SciTegic.value.DoubleValue
-9.106

@<SCITEGIC>MOL_PROPERTY
VdW
SciTegic.value.DoubleValue
3.765

@<SCITEGIC>MOL_PROPERTY
VdW6
SciTegic.value.DoubleValue
-14.145

@<SCITEGIC>MOL_PROPERTY
VdW12
SciTegic.value.DoubleValue
17.910

@<SCITEGIC>MOL_PROPERTY
Bond
SciTegic.value.DoubleValue
0.723

@<SCITEGIC>MOL_PROPERTY
Angle
SciTegic.value.DoubleValue
9.667

@<SCITEGIC>MOL_PROPERTY
Pdih
SciTegic.value.DoubleValue
9.002

@<SCITEGIC>MOL_PROPERTY
Idih
SciTegic.value.DoubleValue
0.000

@<SCITEGIC>MOL_PROPERTY
Tether
SciTegic.value.DoubleValue
0.000

@<TRIPOS>MOLECULE
guest-s17_vm2.mol2 : vm2 ligand conformer 97
          25          25           1
SMALL
USER_CHARGES
 
@<TRIPOS>ATOM
       1    C1      19.625492   18.948504   21.181006 C.3        1 MOL1        -0.1684
       2    H1      18.812791   18.739408   21.885348 H          1 MOL1         0.0833
       3    H2      19.174784   18.826502   20.186806 H          1 MOL1         0.0833
       4    C2      20.742088   17.887987   21.317509 C.3        1 MOL1        -0.1684
       5    H3      20.281545   16.891747   21.359933 H          1 MOL1         0.0833
       6    H4      21.341926   17.902264   20.397349 H          1 MOL1         0.0833
       7    C3      21.706984   18.055852   22.514966 C.3        1 MOL1        -0.1684
       8    H5      22.282544   18.983291   22.421283 H          1 MOL1         0.0833
       9    H6      22.456674   17.257156   22.433132 H          1 MOL1         0.0833
      10    C4      21.063983   17.938973   23.922385 C.3        1 MOL1        -0.1760
      11    H7      20.468405   17.018201   23.971183 H          1 MOL1         0.0833
      12    H8      21.889726   17.780066   24.628219 H          1 MOL1         0.0833
      13    C5      20.235179   19.132376   24.478537 C.3        1 MOL1         0.1219
      14    H9      20.483641   19.169753   25.549224 H          1 MOL1         0.0790
      15    C6      20.571931   20.547382   23.928146 C.3        1 MOL1        -0.1760
      16    H10     20.364865   21.250081   24.745485 H          1 MOL1         0.0833
      17    H11     21.649435   20.641926   23.750569 H          1 MOL1         0.0833
      18    C7      19.774180   21.060245   22.694294 C.3        1 MOL1        -0.1684
      19    H12     18.696181   20.978556   22.888493 H          1 MOL1         0.0833
      20    H13     19.969887   22.137065   22.602672 H          1 MOL1         0.0833
      21    C8      20.103780   20.413969   21.325291 C.3        1 MOL1        -0.1684
      22    H14     21.173541   20.507096   21.097933 H          1 MOL1         0.0833
      23    H15     19.591538   21.007407   20.555808 H          1 MOL1         0.0833
      24    O1      18.840384   18.857712   24.397865 O.3        1 MOL1        -0.5508
      25    H16     18.703839   17.972642   24.791630 H          1 MOL1         0.3780
@<TRIPOS>BOND
    1     1     2    1
    2     1     3    1
    3     1     4    1
    4     4     5    1
    5     4     6    1
    6     4     7    1
    7     7     8    1
    8     7     9    1
    9     7    10    1
   10    10    11    1
   11    10    12    1
   12    10    13    1
   13    13    14    1
   14    13    15    1
   15    15    16    1
   16    15    17    1
   17    15    18    1
   18    18    19    1
   19    18    20    1
   20     1    21    1
   21    18    21    1
   22    21    22    1
   23    21    23    1
   24    13    24    1
   25    24    25    1
@<TRIPOS>SUBSTRUCTURE
       1 MOL1            1 RESIDUE      1      MOL     
@<SCITEGIC>MOL_PROPERTY
VM2 Rank
SciTegic.value.IntegerValue
97

@<SCITEGIC>MOL_PROPERTY
Conf_Id
SciTegic.value.IntegerValue
1942

@<SCITEGIC>MOL_PROPERTY
Probability
SciTegic.value.DoubleValue
0.00

@<SCITEGIC>MOL_PROPERTY
Sum Probability
SciTegic.value.DoubleValue
99.94

@<SCITEGIC>MOL_PROPERTY
Delta G
SciTegic.value.DoubleValue
4.107

@<SCITEGIC>MOL_PROPERTY
G
SciTegic.value.DoubleValue
66.183

@<SCITEGIC>MOL_PROPERTY
E
SciTegic.value.DoubleValue
33.559

@<SCITEGIC>MOL_PROPERTY
-TS
SciTegic.value.DoubleValue
32.624

@<SCITEGIC>MOL_PROPERTY
U+W
SciTegic.value.DoubleValue
12.991

@<SCITEGIC>MOL_PROPERTY
U
SciTegic.value.DoubleValue
14.959

@<SCITEGIC>MOL_PROPERTY
W
SciTegic.value.DoubleValue
-1.967

@<SCITEGIC>MOL_PROPERTY
W(PB)
SciTegic.value.DoubleValue
-4.075

@<SCITEGIC>MOL_PROPERTY
W(SA)
SciTegic.value.DoubleValue
2.108

@<SCITEGIC>MOL_PROPERTY
Valence
SciTegic.value.DoubleValue
18.591

@<SCITEGIC>MOL_PROPERTY
Coulomb
SciTegic.value.DoubleValue
-6.260

@<SCITEGIC>MOL_PROPERTY
VdW
SciTegic.value.DoubleValue
2.627

@<SCITEGIC>MOL_PROPERTY
VdW6
SciTegic.value.DoubleValue
-13.467

@<SCITEGIC>MOL_PROPERTY
VdW12
SciTegic.value.DoubleValue
16.095

@<SCITEGIC>MOL_PROPERTY
Bond
SciTegic.value.DoubleValue
0.508

@<SCITEGIC>MOL_PROPERTY
Angle
SciTegic.value.DoubleValue
7.247

@<SCITEGIC>MOL_PROPERTY
Pdih
SciTegic.value.DoubleValue
10.837

@<SCITEGIC>MOL_PROPERTY
Idih
SciTegic.value.DoubleValue
0.000

@<SCITEGIC>MOL_PROPERTY
Tether
SciTegic.value.DoubleValue
0.000

@<TRIPOS>MOLECULE
guest-s17_vm2.mol2 : vm2 ligand conformer 98
          25          25           1
SMALL
USER_CHARGES
 
@<TRIPOS>ATOM
       1    C1      19.610850   18.885576   21.197752 C.3        1 MOL1        -0.1684
       2    H1      18.900455   18.471073   21.921510 H          1 MOL1         0.0833
       3    H2      19.188205   18.637634   20.214718 H          1 MOL1         0.0833
       4    C2      20.986957   18.188260   21.329071 C.3        1 MOL1        -0.1684
       5    H3      21.030039   17.394018   20.571449 H          1 MOL1         0.0833
       6    H4      21.805765   18.874058   21.076108 H          1 MOL1         0.0833
       7    C3      21.234340   17.520142   22.704899 C.3        1 MOL1        -0.1684
       8    H5      22.131808   16.894595   22.607525 H          1 MOL1         0.0833
       9    H6      20.417208   16.819879   22.924883 H          1 MOL1         0.0833
      10    C4      21.458392   18.466441   23.919865 C.3        1 MOL1        -0.1760
      11    H7      21.822620   17.835994   24.741194 H          1 MOL1         0.0833
      12    H8      22.284542   19.157530   23.716498 H          1 MOL1         0.0833
      13    C5      20.230327   19.239174   24.479607 C.3        1 MOL1         0.1219
      14    H9      20.451448   19.405464   25.544010 H          1 MOL1         0.0790
      15    C6      19.964076   20.660236   23.905038 C.3        1 MOL1        -0.1760
      16    H10     18.893096   20.892241   23.968994 H          1 MOL1         0.0833
      17    H11     20.448618   21.367221   24.591110 H          1 MOL1         0.0833
      18    C7      20.476845   21.008838   22.482545 C.3        1 MOL1        -0.1684
      19    H12     21.537574   20.757238   22.374186 H          1 MOL1         0.0833
      20    H13     20.441782   22.102291   22.383653 H          1 MOL1         0.0833
      21    C8      19.654346   20.426982   21.308645 C.3        1 MOL1        -0.1684
      22    H14     20.072683   20.825607   20.374410 H          1 MOL1         0.0833
      23    H15     18.625508   20.807668   21.363085 H          1 MOL1         0.0833
      24    O1      19.047867   18.447351   24.432578 O.3        1 MOL1        -0.5508
      25    H16     18.333078   18.983708   24.830632 H          1 MOL1         0.3780
@<TRIPOS>BOND
    1     1     2    1
    2     1     3    1
    3     1     4    1
    4     4     5    1
    5     4     6    1
    6     4     7    1
    7     7     8    1
    8     7     9    1
    9     7    10    1
   10    10    11    1
   11    10    12    1
   12    10    13    1
   13    13    14    1
   14    13    15    1
   15    15    16    1
   16    15    17    1
   17    15    18    1
   18    18    19    1
   19    18    20    1
   20     1    21    1
   21    18    21    1
   22    21    22    1
   23    21    23    1
   24    13    24    1
   25    24    25    1
@<TRIPOS>SUBSTRUCTURE
       1 MOL1            1 RESIDUE      1      MOL     
@<SCITEGIC>MOL_PROPERTY
VM2 Rank
SciTegic.value.IntegerValue
98

@<SCITEGIC>MOL_PROPERTY
Conf_Id
SciTegic.value.IntegerValue
1567

@<SCITEGIC>MOL_PROPERTY
Probability
SciTegic.value.DoubleValue
0.00

@<SCITEGIC>MOL_PROPERTY
Sum Probability
SciTegic.value.DoubleValue
99.95

@<SCITEGIC>MOL_PROPERTY
Delta G
SciTegic.value.DoubleValue
4.136

@<SCITEGIC>MOL_PROPERTY
G
SciTegic.value.DoubleValue
66.212

@<SCITEGIC>MOL_PROPERTY
E
SciTegic.value.DoubleValue
33.588

@<SCITEGIC>MOL_PROPERTY
-TS
SciTegic.value.DoubleValue
32.623

@<SCITEGIC>MOL_PROPERTY
U+W
SciTegic.value.DoubleValue
13.021

@<SCITEGIC>MOL_PROPERTY
U
SciTegic.value.DoubleValue
14.959

@<SCITEGIC>MOL_PROPERTY
W
SciTegic.value.DoubleValue
-1.938

@<SCITEGIC>MOL_PROPERTY
W(PB)
SciTegic.value.DoubleValue
-4.057

@<SCITEGIC>MOL_PROPERTY
W(SA)
SciTegic.value.DoubleValue
2.119

@<SCITEGIC>MOL_PROPERTY
Valence
SciTegic.value.DoubleValue
18.592

@<SCITEGIC>MOL_PROPERTY
Coulomb
SciTegic.value.DoubleValue
-6.260

@<SCITEGIC>MOL_PROPERTY
VdW
SciTegic.value.DoubleValue
2.627

@<SCITEGIC>MOL_PROPERTY
VdW6
SciTegic.value.DoubleValue
-13.467

@<SCITEGIC>MOL_PROPERTY
VdW12
SciTegic.value.DoubleValue
16.094

@<SCITEGIC>MOL_PROPERTY
Bond
SciTegic.value.DoubleValue
0.508

@<SCITEGIC>MOL_PROPERTY
Angle
SciTegic.value.DoubleValue
7.247

@<SCITEGIC>MOL_PROPERTY
Pdih
SciTegic.value.DoubleValue
10.836

@<SCITEGIC>MOL_PROPERTY
Idih
SciTegic.value.DoubleValue
0.000

@<SCITEGIC>MOL_PROPERTY
Tether
SciTegic.value.DoubleValue
0.000

@<TRIPOS>MOLECULE
guest-s17_vm2.mol2 : vm2 ligand conformer 99
          25          25           1
SMALL
USER_CHARGES
 
@<TRIPOS>ATOM
       1    C1      21.327518   19.720404   21.251917 C.3        1 MOL1        -0.1684
       2    H1      21.900251   20.212899   22.044143 H          1 MOL1         0.0833
       3    H2      21.894245   19.959321   20.341619 H          1 MOL1         0.0833
       4    C2      21.364323   18.172707   21.417937 C.3        1 MOL1        -0.1684
       5    H3      21.341887   17.734195   20.410900 H          1 MOL1         0.0833
       6    H4      22.335695   17.882867   21.840941 H          1 MOL1         0.0833
       7    C3      20.229712   17.494929   22.230293 C.3        1 MOL1        -0.1684
       8    H5      20.359122   16.407862   22.139322 H          1 MOL1         0.0833
       9    H6      19.270816   17.681037   21.736402 H          1 MOL1         0.0833
      10    C4      20.142575   17.820819   23.751248 C.3        1 MOL1        -0.1760
      11    H7      19.130318   17.590771   24.108045 H          1 MOL1         0.0833
      12    H8      20.806558   17.118902   24.272932 H          1 MOL1         0.0833
      13    C5      20.534291   19.243905   24.221618 C.3        1 MOL1         0.1219
      14    H9      21.563229   19.433076   23.898531 H          1 MOL1         0.0790
      15    C6      19.617039   20.415106   23.765007 C.3        1 MOL1        -0.1760
      16    H10     18.789042   20.497831   24.482087 H          1 MOL1         0.0833
      17    H11     20.180702   21.352846   23.851329 H          1 MOL1         0.0833
      18    C7      18.978322   20.344685   22.351645 C.3        1 MOL1        -0.1684
      19    H12     18.287254   21.193356   22.257017 H          1 MOL1         0.0833
      20    H13     18.320339   19.471772   22.294989 H          1 MOL1         0.0833
      21    C8      19.936626   20.396319   21.125949 C.3        1 MOL1        -0.1684
      22    H14     20.115079   21.454891   20.892592 H          1 MOL1         0.0833
      23    H15     19.414828   19.988011   20.249897 H          1 MOL1         0.0833
      24    O1      20.533594   19.234125   25.644386 O.3        1 MOL1        -0.5508
      25    H16     20.841617   20.118652   25.932665 H          1 MOL1         0.3780
@<TRIPOS>BOND
    1     1     2    1
    2     1     3    1
    3     1     4    1
    4     4     5    1
    5     4     6    1
    6     4     7    1
    7     7     8    1
    8     7     9    1
    9     7    10    1
   10    10    11    1
   11    10    12    1
   12    10    13    1
   13    13    14    1
   14    13    15    1
   15    15    16    1
   16    15    17    1
   17    15    18    1
   18    18    19    1
   19    18    20    1
   20     1    21    1
   21    18    21    1
   22    21    22    1
   23    21    23    1
   24    13    24    1
   25    24    25    1
@<TRIPOS>SUBSTRUCTURE
       1 MOL1            1 RESIDUE      1      MOL     
@<SCITEGIC>MOL_PROPERTY
VM2 Rank
SciTegic.value.IntegerValue
99

@<SCITEGIC>MOL_PROPERTY
Conf_Id
SciTegic.value.IntegerValue
1840

@<SCITEGIC>MOL_PROPERTY
Probability
SciTegic.value.DoubleValue
0.00

@<SCITEGIC>MOL_PROPERTY
Sum Probability
SciTegic.value.DoubleValue
99.95

@<SCITEGIC>MOL_PROPERTY
Delta G
SciTegic.value.DoubleValue
4.145

@<SCITEGIC>MOL_PROPERTY
G
SciTegic.value.DoubleValue
66.220

@<SCITEGIC>MOL_PROPERTY
E
SciTegic.value.DoubleValue
33.542

@<SCITEGIC>MOL_PROPERTY
-TS
SciTegic.value.DoubleValue
32.679

@<SCITEGIC>MOL_PROPERTY
U+W
SciTegic.value.DoubleValue
12.974

@<SCITEGIC>MOL_PROPERTY
U
SciTegic.value.DoubleValue
15.029

@<SCITEGIC>MOL_PROPERTY
W
SciTegic.value.DoubleValue
-2.055

@<SCITEGIC>MOL_PROPERTY
W(PB)
SciTegic.value.DoubleValue
-4.194

@<SCITEGIC>MOL_PROPERTY
W(SA)
SciTegic.value.DoubleValue
2.139

@<SCITEGIC>MOL_PROPERTY
Valence
SciTegic.value.DoubleValue
18.887

@<SCITEGIC>MOL_PROPERTY
Coulomb
SciTegic.value.DoubleValue
-8.127

@<SCITEGIC>MOL_PROPERTY
VdW
SciTegic.value.DoubleValue
4.269

@<SCITEGIC>MOL_PROPERTY
VdW6
SciTegic.value.DoubleValue
-13.485

@<SCITEGIC>MOL_PROPERTY
VdW12
SciTegic.value.DoubleValue
17.754

@<SCITEGIC>MOL_PROPERTY
Bond
SciTegic.value.DoubleValue
0.714

@<SCITEGIC>MOL_PROPERTY
Angle
SciTegic.value.DoubleValue
8.960

@<SCITEGIC>MOL_PROPERTY
Pdih
SciTegic.value.DoubleValue
9.213

@<SCITEGIC>MOL_PROPERTY
Idih
SciTegic.value.DoubleValue
0.000

@<SCITEGIC>MOL_PROPERTY
Tether
SciTegic.value.DoubleValue
0.000

@<TRIPOS>MOLECULE
guest-s17_vm2.mol2 : vm2 ligand conformer 100
          25          25           1
SMALL
USER_CHARGES
 
@<TRIPOS>ATOM
       1    C1      21.378667   19.559773   21.242107 C.3        1 MOL1        -0.1684
       2    H1      22.136374   19.627059   22.029222 H          1 MOL1         0.0833
       3    H2      21.941822   19.785818   20.326322 H          1 MOL1         0.0833
       4    C2      20.878935   18.095002   21.132452 C.3        1 MOL1        -0.1684
       5    H3      20.216344   18.003872   20.261175 H          1 MOL1         0.0833
       6    H4      21.755012   17.474464   20.899437 H          1 MOL1         0.0833
       7    C3      20.175104   17.461886   22.368225 C.3        1 MOL1        -0.1684
       8    H5      20.290892   16.372819   22.282809 H          1 MOL1         0.0833
       9    H6      19.091599   17.608512   22.316761 H          1 MOL1         0.0833
      10    C4      20.683229   17.878831   23.774807 C.3        1 MOL1        -0.1760
      11    H7      20.163524   17.239041   24.500892 H          1 MOL1         0.0833
      12    H8      21.746580   17.619908   23.857073 H          1 MOL1         0.0833
      13    C5      20.499665   19.358864   24.219066 C.3        1 MOL1         0.1219
      14    H9      21.356320   19.953588   23.885401 H          1 MOL1         0.0790
      15    C6      19.210283   20.078016   23.749839 C.3        1 MOL1        -0.1760
      16    H10     18.336541   19.524161   24.116867 H          1 MOL1         0.0833
      17    H11     19.182110   21.048403   24.262938 H          1 MOL1         0.0833
      18    C7      19.031071   20.355517   22.227345 C.3        1 MOL1        -0.1684
      19    H12     18.349491   21.211801   22.132672 H          1 MOL1         0.0833
      20    H13     18.485361   19.538998   21.744081 H          1 MOL1         0.0833
      21    C8      20.306283   20.676884   21.404422 C.3        1 MOL1        -0.1684
      22    H14     20.786692   21.574626   21.816454 H          1 MOL1         0.0833
      23    H15     19.973018   20.960509   20.396746 H          1 MOL1         0.0833
      24    O1      20.500762   19.378225   25.641737 O.3        1 MOL1        -0.5508
      25    H16     21.347650   18.977166   25.928614 H          1 MOL1         0.3780
@<TRIPOS>BOND
    1     1     2    1
    2     1     3    1
    3     1     4    1
    4     4     5    1
    5     4     6    1
    6     4     7    1
    7     7     8    1
    8     7     9    1
    9     7    10    1
   10    10    11    1
   11    10    12    1
   12    10    13    1
   13    13    14    1
   14    13    15    1
   15    15    16    1
   16    15    17    1
   17    15    18    1
   18    18    19    1
   19    18    20    1
   20     1    21    1
   21    18    21    1
   22    21    22    1
   23    21    23    1
   24    13    24    1
   25    24    25    1
@<TRIPOS>SUBSTRUCTURE
       1 MOL1            1 RESIDUE      1      MOL     
@<SCITEGIC>MOL_PROPERTY
VM2 Rank
SciTegic.value.IntegerValue
100

@<SCITEGIC>MOL_PROPERTY
Conf_Id
SciTegic.value.IntegerValue
793

@<SCITEGIC>MOL_PROPERTY
Probability
SciTegic.value.DoubleValue
0.00

@<SCITEGIC>MOL_PROPERTY
Sum Probability
SciTegic.value.DoubleValue
99.96

@<SCITEGIC>MOL_PROPERTY
Delta G
SciTegic.value.DoubleValue
4.147

@<SCITEGIC>MOL_PROPERTY
G
SciTegic.value.DoubleValue
66.222

@<SCITEGIC>MOL_PROPERTY
E
SciTegic.value.DoubleValue
33.544

@<SCITEGIC>MOL_PROPERTY
-TS
SciTegic.value.DoubleValue
32.678

@<SCITEGIC>MOL_PROPERTY
U+W
SciTegic.value.DoubleValue
12.976

@<SCITEGIC>MOL_PROPERTY
U
SciTegic.value.DoubleValue
15.029

@<SCITEGIC>MOL_PROPERTY
W
SciTegic.value.DoubleValue
-2.053

@<SCITEGIC>MOL_PROPERTY
W(PB)
SciTegic.value.DoubleValue
-4.201

@<SCITEGIC>MOL_PROPERTY
W(SA)
SciTegic.value.DoubleValue
2.148

@<SCITEGIC>MOL_PROPERTY
Valence
SciTegic.value.DoubleValue
18.886

@<SCITEGIC>MOL_PROPERTY
Coulomb
SciTegic.value.DoubleValue
-8.127

@<SCITEGIC>MOL_PROPERTY
VdW
SciTegic.value.DoubleValue
4.270

@<SCITEGIC>MOL_PROPERTY
VdW6
SciTegic.value.DoubleValue
-13.485

@<SCITEGIC>MOL_PROPERTY
VdW12
SciTegic.value.DoubleValue
17.756

@<SCITEGIC>MOL_PROPERTY
Bond
SciTegic.value.DoubleValue
0.714

@<SCITEGIC>MOL_PROPERTY
Angle
SciTegic.value.DoubleValue
8.958

@<SCITEGIC>MOL_PROPERTY
Pdih
SciTegic.value.DoubleValue
9.214

@<SCITEGIC>MOL_PROPERTY
Idih
SciTegic.value.DoubleValue
0.000

@<SCITEGIC>MOL_PROPERTY
Tether
SciTegic.value.DoubleValue
0.000

@<TRIPOS>MOLECULE
guest-s17_vm2.mol2 : vm2 ligand conformer 101
          25          25           1
SMALL
USER_CHARGES
 
@<TRIPOS>ATOM
       1    C1      20.713661   19.496001   20.721301 C.3        1 MOL1        -0.1684
       2    H1      21.313288   20.383547   20.478249 H          1 MOL1         0.0833
       3    H2      20.481803   19.026651   19.755509 H          1 MOL1         0.0833
       4    C2      21.596603   18.495882   21.523773 C.3        1 MOL1        -0.1684
       5    H3      22.234639   17.975425   20.796498 H          1 MOL1         0.0833
       6    H4      22.313893   19.029174   22.155357 H          1 MOL1         0.0833
       7    C3      20.871998   17.414183   22.367099 C.3        1 MOL1        -0.1684
       8    H5      21.646255   16.737123   22.753130 H          1 MOL1         0.0833
       9    H6      20.248622   16.798228   21.704987 H          1 MOL1         0.0833
      10    C4      20.011520   17.878822   23.579919 C.3        1 MOL1        -0.1760
      11    H7      18.972911   18.038602   23.276795 H          1 MOL1         0.0833
      12    H8      19.952331   17.028118   24.271905 H          1 MOL1         0.0833
      13    C5      20.505166   19.103918   24.390471 C.3        1 MOL1         0.1219
      14    H9      21.523006   18.888727   24.745605 H          1 MOL1         0.0790
      15    C6      20.532884   20.485850   23.676053 C.3        1 MOL1        -0.1760
      16    H10     20.490221   21.261157   24.452964 H          1 MOL1         0.0833
      17    H11     21.509264   20.653521   23.213324 H          1 MOL1         0.0833
      18    C7      19.416864   20.797339   22.641420 C.3        1 MOL1        -0.1684
      19    H12     19.543760   21.846497   22.341525 H          1 MOL1         0.0833
      20    H13     18.437591   20.752271   23.136221 H          1 MOL1         0.0833
      21    C8      19.363754   19.945922   21.339553 C.3        1 MOL1        -0.1684
      22    H14     18.715964   19.073347   21.468933 H          1 MOL1         0.0833
      23    H15     18.837596   20.545460   20.584227 H          1 MOL1         0.0833
      24    O1      19.651551   19.225085   25.520412 O.3        1 MOL1        -0.5508
      25    H16     18.776391   19.486208   25.168268 H          1 MOL1         0.3780
@<TRIPOS>BOND
    1     1     2    1
    2     1     3    1
    3     1     4    1
    4     4     5    1
    5     4     6    1
    6     4     7    1
    7     7     8    1
    8     7     9    1
    9     7    10    1
   10    10    11    1
   11    10    12    1
   12    10    13    1
   13    13    14    1
   14    13    15    1
   15    15    16    1
   16    15    17    1
   17    15    18    1
   18    18    19    1
   19    18    20    1
   20     1    21    1
   21    18    21    1
   22    21    22    1
   23    21    23    1
   24    13    24    1
   25    24    25    1
@<TRIPOS>SUBSTRUCTURE
       1 MOL1            1 RESIDUE      1      MOL     
@<SCITEGIC>MOL_PROPERTY
VM2 Rank
SciTegic.value.IntegerValue
101

@<SCITEGIC>MOL_PROPERTY
Conf_Id
SciTegic.value.IntegerValue
1665

@<SCITEGIC>MOL_PROPERTY
Probability
SciTegic.value.DoubleValue
0.00

@<SCITEGIC>MOL_PROPERTY
Sum Probability
SciTegic.value.DoubleValue
99.96

@<SCITEGIC>MOL_PROPERTY
Delta G
SciTegic.value.DoubleValue
4.153

@<SCITEGIC>MOL_PROPERTY
G
SciTegic.value.DoubleValue
66.228

@<SCITEGIC>MOL_PROPERTY
E
SciTegic.value.DoubleValue
33.565

@<SCITEGIC>MOL_PROPERTY
-TS
SciTegic.value.DoubleValue
32.663

@<SCITEGIC>MOL_PROPERTY
U+W
SciTegic.value.DoubleValue
12.998

@<SCITEGIC>MOL_PROPERTY
U
SciTegic.value.DoubleValue
14.560

@<SCITEGIC>MOL_PROPERTY
W
SciTegic.value.DoubleValue
-1.562

@<SCITEGIC>MOL_PROPERTY
W(PB)
SciTegic.value.DoubleValue
-3.690

@<SCITEGIC>MOL_PROPERTY
W(SA)
SciTegic.value.DoubleValue
2.128

@<SCITEGIC>MOL_PROPERTY
Valence
SciTegic.value.DoubleValue
19.306

@<SCITEGIC>MOL_PROPERTY
Coulomb
SciTegic.value.DoubleValue
-8.913

@<SCITEGIC>MOL_PROPERTY
VdW
SciTegic.value.DoubleValue
4.167

@<SCITEGIC>MOL_PROPERTY
VdW6
SciTegic.value.DoubleValue
-13.653

@<SCITEGIC>MOL_PROPERTY
VdW12
SciTegic.value.DoubleValue
17.820

@<SCITEGIC>MOL_PROPERTY
Bond
SciTegic.value.DoubleValue
0.720

@<SCITEGIC>MOL_PROPERTY
Angle
SciTegic.value.DoubleValue
9.343

@<SCITEGIC>MOL_PROPERTY
Pdih
SciTegic.value.DoubleValue
9.243

@<SCITEGIC>MOL_PROPERTY
Idih
SciTegic.value.DoubleValue
0.000

@<SCITEGIC>MOL_PROPERTY
Tether
SciTegic.value.DoubleValue
0.000

@<TRIPOS>MOLECULE
guest-s17_vm2.mol2 : vm2 ligand conformer 102
          25          25           1
SMALL
USER_CHARGES
 
@<TRIPOS>ATOM
       1    C1      20.787507   19.285141   20.718681 C.3        1 MOL1        -0.1684
       2    H1      20.282340   19.416921   19.752120 H          1 MOL1         0.0833
       3    H2      21.846475   19.124756   20.475314 H          1 MOL1         0.0833
       4    C2      20.209622   17.994691   21.357192 C.3        1 MOL1        -0.1684
       5    H3      19.128906   18.107802   21.487635 H          1 MOL1         0.0833
       6    H4      20.294814   17.190884   20.613255 H          1 MOL1         0.0833
       7    C3      20.876817   17.478025   22.665050 C.3        1 MOL1        -0.1684
       8    H5      21.735735   16.859037   22.371982 H          1 MOL1         0.0833
       9    H6      20.183695   16.793295   23.171565 H          1 MOL1         0.0833
      10    C4      21.403005   18.526529   23.683263 C.3        1 MOL1        -0.1760
      11    H7      21.948074   17.982964   24.466812 H          1 MOL1         0.0833
      12    H8      22.184721   19.126811   23.209835 H          1 MOL1         0.0833
      13    C5      20.366585   19.449361   24.386906 C.3        1 MOL1         0.1219
      14    H9      20.895866   20.350567   24.727662 H          1 MOL1         0.0790
      15    C6      19.127537   19.900480   23.572783 C.3        1 MOL1        -0.1760
      16    H10     18.543473   19.022120   23.283859 H          1 MOL1         0.0833
      17    H11     18.461730   20.441174   24.258637 H          1 MOL1         0.0833
      18    C7      19.362667   20.831200   22.345704 C.3        1 MOL1        -0.1684
      19    H12     18.485787   20.777544   21.686466 H          1 MOL1         0.0833
      20    H13     19.386825   21.864982   22.716670 H          1 MOL1         0.0833
      21    C8      20.647761   20.623217   21.502140 C.3        1 MOL1        -0.1684
      22    H14     21.526983   20.801471   22.129037 H          1 MOL1         0.0833
      23    H15     20.692762   21.434617   20.762885 H          1 MOL1         0.0833
      24    O1      19.882499   18.754356   25.528281 O.3        1 MOL1        -0.5508
      25    H16     19.483511   17.927386   25.189128 H          1 MOL1         0.3780
@<TRIPOS>BOND
    1     1     2    1
    2     1     3    1
    3     1     4    1
    4     4     5    1
    5     4     6    1
    6     4     7    1
    7     7     8    1
    8     7     9    1
    9     7    10    1
   10    10    11    1
   11    10    12    1
   12    10    13    1
   13    13    14    1
   14    13    15    1
   15    15    16    1
   16    15    17    1
   17    15    18    1
   18    18    19    1
   19    18    20    1
   20     1    21    1
   21    18    21    1
   22    21    22    1
   23    21    23    1
   24    13    24    1
   25    24    25    1
@<TRIPOS>SUBSTRUCTURE
       1 MOL1            1 RESIDUE      1      MOL     
@<SCITEGIC>MOL_PROPERTY
VM2 Rank
SciTegic.value.IntegerValue
102

@<SCITEGIC>MOL_PROPERTY
Conf_Id
SciTegic.value.IntegerValue
1885

@<SCITEGIC>MOL_PROPERTY
Probability
SciTegic.value.DoubleValue
0.00

@<SCITEGIC>MOL_PROPERTY
Sum Probability
SciTegic.value.DoubleValue
99.97

@<SCITEGIC>MOL_PROPERTY
Delta G
SciTegic.value.DoubleValue
4.165

@<SCITEGIC>MOL_PROPERTY
G
SciTegic.value.DoubleValue
66.240

@<SCITEGIC>MOL_PROPERTY
E
SciTegic.value.DoubleValue
33.577

@<SCITEGIC>MOL_PROPERTY
-TS
SciTegic.value.DoubleValue
32.664

@<SCITEGIC>MOL_PROPERTY
U+W
SciTegic.value.DoubleValue
13.009

@<SCITEGIC>MOL_PROPERTY
U
SciTegic.value.DoubleValue
14.560

@<SCITEGIC>MOL_PROPERTY
W
SciTegic.value.DoubleValue
-1.550

@<SCITEGIC>MOL_PROPERTY
W(PB)
SciTegic.value.DoubleValue
-3.681

@<SCITEGIC>MOL_PROPERTY
W(SA)
SciTegic.value.DoubleValue
2.130

@<SCITEGIC>MOL_PROPERTY
Valence
SciTegic.value.DoubleValue
19.306

@<SCITEGIC>MOL_PROPERTY
Coulomb
SciTegic.value.DoubleValue
-8.913

@<SCITEGIC>MOL_PROPERTY
VdW
SciTegic.value.DoubleValue
4.167

@<SCITEGIC>MOL_PROPERTY
VdW6
SciTegic.value.DoubleValue
-13.653

@<SCITEGIC>MOL_PROPERTY
VdW12
SciTegic.value.DoubleValue
17.820

@<SCITEGIC>MOL_PROPERTY
Bond
SciTegic.value.DoubleValue
0.720

@<SCITEGIC>MOL_PROPERTY
Angle
SciTegic.value.DoubleValue
9.343

@<SCITEGIC>MOL_PROPERTY
Pdih
SciTegic.value.DoubleValue
9.243

@<SCITEGIC>MOL_PROPERTY
Idih
SciTegic.value.DoubleValue
0.000

@<SCITEGIC>MOL_PROPERTY
Tether
SciTegic.value.DoubleValue
0.000

@<TRIPOS>MOLECULE
guest-s17_vm2.mol2 : vm2 ligand conformer 103
          25          25           1
SMALL
USER_CHARGES
 
@<TRIPOS>ATOM
       1    C1      21.378867   19.559822   21.242144 C.3        1 MOL1        -0.1684
       2    H1      22.136469   19.627001   22.029390 H          1 MOL1         0.0833
       3    H2      21.942131   19.786196   20.326508 H          1 MOL1         0.0833
       4    C2      20.879645   18.094894   21.132138 C.3        1 MOL1        -0.1684
       5    H3      20.217377   18.003549   20.260645 H          1 MOL1         0.0833
       6    H4      21.756074   17.474760   20.899383 H          1 MOL1         0.0833
       7    C3      20.175812   17.461241   22.367695 C.3        1 MOL1        -0.1684
       8    H5      20.293696   16.372347   22.283276 H          1 MOL1         0.0833
       9    H6      19.092114   17.605842   22.315196 H          1 MOL1         0.0833
      10    C4      20.681585   17.879822   23.774820 C.3        1 MOL1        -0.1760
      11    H7      20.162526   17.241930   24.502820 H          1 MOL1         0.0833
      12    H8      21.744761   17.622361   23.862339 H          1 MOL1         0.0833
      13    C5      20.499283   19.359597   24.219364 C.3        1 MOL1         0.1219
      14    H9      21.358512   19.950573   23.885767 H          1 MOL1         0.0790
      15    C6      19.209843   20.079893   23.750099 C.3        1 MOL1        -0.1760
      16    H10     18.335736   19.525197   24.115639 H          1 MOL1         0.0833
      17    H11     19.177576   21.052818   24.257680 H          1 MOL1         0.0833
      18    C7      19.030996   20.354377   22.227208 C.3        1 MOL1        -0.1684
      19    H12     18.348098   21.209419   22.130408 H          1 MOL1         0.0833
      20    H13     18.486614   19.536432   21.744883 H          1 MOL1         0.0833
      21    C8      20.306029   20.676476   21.404385 C.3        1 MOL1        -0.1684
      22    H14     20.785979   21.574741   21.815771 H          1 MOL1         0.0833
      23    H15     19.972517   20.959423   20.396589 H          1 MOL1         0.0833
      24    O1      20.501939   19.376878   25.642147 O.3        1 MOL1        -0.5508
      25    H16     20.452531   20.316996   25.913796 H          1 MOL1         0.3780
@<TRIPOS>BOND
    1     1     2    1
    2     1     3    1
    3     1     4    1
    4     4     5    1
    5     4     6    1
    6     4     7    1
    7     7     8    1
    8     7     9    1
    9     7    10    1
   10    10    11    1
   11    10    12    1
   12    10    13    1
   13    13    14    1
   14    13    15    1
   15    15    16    1
   16    15    17    1
   17    15    18    1
   18    18    19    1
   19    18    20    1
   20     1    21    1
   21    18    21    1
   22    21    22    1
   23    21    23    1
   24    13    24    1
   25    24    25    1
@<TRIPOS>SUBSTRUCTURE
       1 MOL1            1 RESIDUE      1      MOL     
@<SCITEGIC>MOL_PROPERTY
VM2 Rank
SciTegic.value.IntegerValue
103

@<SCITEGIC>MOL_PROPERTY
Conf_Id
SciTegic.value.IntegerValue
1478

@<SCITEGIC>MOL_PROPERTY
Probability
SciTegic.value.DoubleValue
0.00

@<SCITEGIC>MOL_PROPERTY
Sum Probability
SciTegic.value.DoubleValue
99.97

@<SCITEGIC>MOL_PROPERTY
Delta G
SciTegic.value.DoubleValue
4.183

@<SCITEGIC>MOL_PROPERTY
G
SciTegic.value.DoubleValue
66.258

@<SCITEGIC>MOL_PROPERTY
E
SciTegic.value.DoubleValue
33.597

@<SCITEGIC>MOL_PROPERTY
-TS
SciTegic.value.DoubleValue
32.661

@<SCITEGIC>MOL_PROPERTY
U+W
SciTegic.value.DoubleValue
13.030

@<SCITEGIC>MOL_PROPERTY
U
SciTegic.value.DoubleValue
15.076

@<SCITEGIC>MOL_PROPERTY
W
SciTegic.value.DoubleValue
-2.046

@<SCITEGIC>MOL_PROPERTY
W(PB)
SciTegic.value.DoubleValue
-4.188

@<SCITEGIC>MOL_PROPERTY
W(SA)
SciTegic.value.DoubleValue
2.142

@<SCITEGIC>MOL_PROPERTY
Valence
SciTegic.value.DoubleValue
18.884

@<SCITEGIC>MOL_PROPERTY
Coulomb
SciTegic.value.DoubleValue
-8.074

@<SCITEGIC>MOL_PROPERTY
VdW
SciTegic.value.DoubleValue
4.265

@<SCITEGIC>MOL_PROPERTY
VdW6
SciTegic.value.DoubleValue
-13.486

@<SCITEGIC>MOL_PROPERTY
VdW12
SciTegic.value.DoubleValue
17.751

@<SCITEGIC>MOL_PROPERTY
Bond
SciTegic.value.DoubleValue
0.713

@<SCITEGIC>MOL_PROPERTY
Angle
SciTegic.value.DoubleValue
8.958

@<SCITEGIC>MOL_PROPERTY
Pdih
SciTegic.value.DoubleValue
9.213

@<SCITEGIC>MOL_PROPERTY
Idih
SciTegic.value.DoubleValue
0.000

@<SCITEGIC>MOL_PROPERTY
Tether
SciTegic.value.DoubleValue
0.000

@<TRIPOS>MOLECULE
guest-s17_vm2.mol2 : vm2 ligand conformer 104
          25          25           1
SMALL
USER_CHARGES
 
@<TRIPOS>ATOM
       1    C1      21.327677   19.720499   21.251956 C.3        1 MOL1        -0.1684
       2    H1      21.894710   19.959248   20.341806 H          1 MOL1         0.0833
       3    H2      21.900228   20.213053   22.044299 H          1 MOL1         0.0833
       4    C2      21.363894   18.172810   21.417969 C.3        1 MOL1        -0.1684
       5    H3      21.340922   17.734554   20.410822 H          1 MOL1         0.0833
       6    H4      22.335286   17.882328   21.840447 H          1 MOL1         0.0833
       7    C3      20.228817   17.495689   22.230129 C.3        1 MOL1        -0.1684
       8    H5      20.356425   16.408552   22.137032 H          1 MOL1         0.0833
       9    H6      19.269878   17.683771   21.737092 H          1 MOL1         0.0833
      10    C4      20.143440   17.819223   23.751496 C.3        1 MOL1        -0.1760
      11    H7      19.130263   17.589679   24.106681 H          1 MOL1         0.0833
      12    H8      20.806228   17.112497   24.267745 H          1 MOL1         0.0833
      13    C5      20.534559   19.243101   24.221905 C.3        1 MOL1         0.1219
      14    H9      21.562666   19.436619   23.898855 H          1 MOL1         0.0790
      15    C6      19.616729   20.413320   23.765000 C.3        1 MOL1        -0.1760
      16    H10     18.790588   20.495342   24.484082 H          1 MOL1         0.0833
      17    H11     20.181385   21.349849   23.856461 H          1 MOL1         0.0833
      18    C7      18.978390   20.345664   22.351155 C.3        1 MOL1        -0.1684
      19    H12     18.318818   19.474047   22.293549 H          1 MOL1         0.0833
      20    H13     18.288929   21.195719   22.257535 H          1 MOL1         0.0833
      21    C8      19.937000   20.396808   21.125612 C.3        1 MOL1        -0.1684
      22    H14     20.115925   21.455323   20.892379 H          1 MOL1         0.0833
      23    H15     19.415252   19.988743   20.249424 H          1 MOL1         0.0833
      24    O1      20.533495   19.235886   25.644776 O.3        1 MOL1        -0.5508
      25    H16     21.163397   18.539512   25.924671 H          1 MOL1         0.3780
@<TRIPOS>BOND
    1     1     2    1
    2     1     3    1
    3     1     4    1
    4     4     5    1
    5     4     6    1
    6     4     7    1
    7     7     8    1
    8     7     9    1
    9     7    10    1
   10    10    11    1
   11    10    12    1
   12    10    13    1
   13    13    14    1
   14    13    15    1
   15    15    16    1
   16    15    17    1
   17    15    18    1
   18    18    19    1
   19    18    20    1
   20     1    21    1
   21    18    21    1
   22    21    22    1
   23    21    23    1
   24    13    24    1
   25    24    25    1
@<TRIPOS>SUBSTRUCTURE
       1 MOL1            1 RESIDUE      1      MOL     
@<SCITEGIC>MOL_PROPERTY
VM2 Rank
SciTegic.value.IntegerValue
104

@<SCITEGIC>MOL_PROPERTY
Conf_Id
SciTegic.value.IntegerValue
259

@<SCITEGIC>MOL_PROPERTY
Probability
SciTegic.value.DoubleValue
0.00

@<SCITEGIC>MOL_PROPERTY
Sum Probability
SciTegic.value.DoubleValue
99.97

@<SCITEGIC>MOL_PROPERTY
Delta G
SciTegic.value.DoubleValue
4.186

@<SCITEGIC>MOL_PROPERTY
G
SciTegic.value.DoubleValue
66.261

@<SCITEGIC>MOL_PROPERTY
E
SciTegic.value.DoubleValue
33.601

@<SCITEGIC>MOL_PROPERTY
-TS
SciTegic.value.DoubleValue
32.661

@<SCITEGIC>MOL_PROPERTY
U+W
SciTegic.value.DoubleValue
13.033

@<SCITEGIC>MOL_PROPERTY
U
SciTegic.value.DoubleValue
15.076

@<SCITEGIC>MOL_PROPERTY
W
SciTegic.value.DoubleValue
-2.043

@<SCITEGIC>MOL_PROPERTY
W(PB)
SciTegic.value.DoubleValue
-4.186

@<SCITEGIC>MOL_PROPERTY
W(SA)
SciTegic.value.DoubleValue
2.143

@<SCITEGIC>MOL_PROPERTY
Valence
SciTegic.value.DoubleValue
18.884

@<SCITEGIC>MOL_PROPERTY
Coulomb
SciTegic.value.DoubleValue
-8.074

@<SCITEGIC>MOL_PROPERTY
VdW
SciTegic.value.DoubleValue
4.266

@<SCITEGIC>MOL_PROPERTY
VdW6
SciTegic.value.DoubleValue
-13.486

@<SCITEGIC>MOL_PROPERTY
VdW12
SciTegic.value.DoubleValue
17.752

@<SCITEGIC>MOL_PROPERTY
Bond
SciTegic.value.DoubleValue
0.713

@<SCITEGIC>MOL_PROPERTY
Angle
SciTegic.value.DoubleValue
8.956

@<SCITEGIC>MOL_PROPERTY
Pdih
SciTegic.value.DoubleValue
9.214

@<SCITEGIC>MOL_PROPERTY
Idih
SciTegic.value.DoubleValue
0.000

@<SCITEGIC>MOL_PROPERTY
Tether
SciTegic.value.DoubleValue
0.000

@<TRIPOS>MOLECULE
guest-s17_vm2.mol2 : vm2 ligand conformer 105
          25          25           1
SMALL
USER_CHARGES
 
@<TRIPOS>ATOM
       1    C1      21.378757   19.559007   21.242977 C.3        1 MOL1        -0.1684
       2    H1      21.942793   19.785223   20.327783 H          1 MOL1         0.0833
       3    H2      22.135883   19.624318   22.030936 H          1 MOL1         0.0833
       4    C2      20.876554   18.095198   21.131696 C.3        1 MOL1        -0.1684
       5    H3      20.211808   18.006334   20.261829 H          1 MOL1         0.0833
       6    H4      21.751291   17.473906   20.895659 H          1 MOL1         0.0833
       7    C3      20.175301   17.461219   22.368525 C.3        1 MOL1        -0.1684
       8    H5      20.292615   16.372320   22.282849 H          1 MOL1         0.0833
       9    H6      19.091518   17.606610   22.318632 H          1 MOL1         0.0833
      10    C4      20.686192   17.879150   23.773805 C.3        1 MOL1        -0.1760
      11    H7      20.177986   17.232138   24.500963 H          1 MOL1         0.0833
      12    H8      21.752151   17.629619   23.852458 H          1 MOL1         0.0833
      13    C5      20.497803   19.358251   24.219376 C.3        1 MOL1         0.1219
      14    H9      21.355418   19.952735   23.888103 H          1 MOL1         0.0790
      15    C6      19.208514   20.078188   23.749567 C.3        1 MOL1        -0.1760
      16    H10     18.331139   19.527079   24.111891 H          1 MOL1         0.0833
      17    H11     19.181379   21.050003   24.260463 H          1 MOL1         0.0833
      18    C7      19.031573   20.355352   22.226925 C.3        1 MOL1        -0.1684
      19    H12     18.487107   19.538517   21.742667 H          1 MOL1         0.0833
      20    H13     18.349805   21.211373   22.130908 H          1 MOL1         0.0833
      21    C8      20.307829   20.677258   21.406074 C.3        1 MOL1        -0.1684
      22    H14     20.788844   21.573667   21.820313 H          1 MOL1         0.0833
      23    H15     19.975990   20.963049   20.398538 H          1 MOL1         0.0833
      24    O1      20.501478   19.379377   25.641054 O.3        1 MOL1        -0.5508
      25    H16     19.710125   18.879183   25.927697 H          1 MOL1         0.3780
@<TRIPOS>BOND
    1     1     2    1
    2     1     3    1
    3     1     4    1
    4     4     5    1
    5     4     6    1
    6     4     7    1
    7     7     8    1
    8     7     9    1
    9     7    10    1
   10    10    11    1
   11    10    12    1
   12    10    13    1
   13    13    14    1
   14    13    15    1
   15    15    16    1
   16    15    17    1
   17    15    18    1
   18    18    19    1
   19    18    20    1
   20     1    21    1
   21    18    21    1
   22    21    22    1
   23    21    23    1
   24    13    24    1
   25    24    25    1
@<TRIPOS>SUBSTRUCTURE
       1 MOL1            1 RESIDUE      1      MOL     
@<SCITEGIC>MOL_PROPERTY
VM2 Rank
SciTegic.value.IntegerValue
105

@<SCITEGIC>MOL_PROPERTY
Conf_Id
SciTegic.value.IntegerValue
1647

@<SCITEGIC>MOL_PROPERTY
Probability
SciTegic.value.DoubleValue
0.00

@<SCITEGIC>MOL_PROPERTY
Sum Probability
SciTegic.value.DoubleValue
99.98

@<SCITEGIC>MOL_PROPERTY
Delta G
SciTegic.value.DoubleValue
4.200

@<SCITEGIC>MOL_PROPERTY
G
SciTegic.value.DoubleValue
66.276

@<SCITEGIC>MOL_PROPERTY
E
SciTegic.value.DoubleValue
33.617

@<SCITEGIC>MOL_PROPERTY
-TS
SciTegic.value.DoubleValue
32.659

@<SCITEGIC>MOL_PROPERTY
U+W
SciTegic.value.DoubleValue
13.049

@<SCITEGIC>MOL_PROPERTY
U
SciTegic.value.DoubleValue
15.005

@<SCITEGIC>MOL_PROPERTY
W
SciTegic.value.DoubleValue
-1.955

@<SCITEGIC>MOL_PROPERTY
W(PB)
SciTegic.value.DoubleValue
-4.087

@<SCITEGIC>MOL_PROPERTY
W(SA)
SciTegic.value.DoubleValue
2.131

@<SCITEGIC>MOL_PROPERTY
Valence
SciTegic.value.DoubleValue
19.235

@<SCITEGIC>MOL_PROPERTY
Coulomb
SciTegic.value.DoubleValue
-8.450

@<SCITEGIC>MOL_PROPERTY
VdW
SciTegic.value.DoubleValue
4.220

@<SCITEGIC>MOL_PROPERTY
VdW6
SciTegic.value.DoubleValue
-13.529

@<SCITEGIC>MOL_PROPERTY
VdW12
SciTegic.value.DoubleValue
17.749

@<SCITEGIC>MOL_PROPERTY
Bond
SciTegic.value.DoubleValue
0.710

@<SCITEGIC>MOL_PROPERTY
Angle
SciTegic.value.DoubleValue
8.936

@<SCITEGIC>MOL_PROPERTY
Pdih
SciTegic.value.DoubleValue
9.589

@<SCITEGIC>MOL_PROPERTY
Idih
SciTegic.value.DoubleValue
0.000

@<SCITEGIC>MOL_PROPERTY
Tether
SciTegic.value.DoubleValue
0.000

@<TRIPOS>MOLECULE
guest-s17_vm2.mol2 : vm2 ligand conformer 106
          25          25           1
SMALL
USER_CHARGES
 
@<TRIPOS>ATOM
       1    C1      21.327149   19.721091   21.252892 C.3        1 MOL1        -0.1684
       2    H1      21.894683   19.960562   20.343249 H          1 MOL1         0.0833
       3    H2      21.897962   20.214580   22.046005 H          1 MOL1         0.0833
       4    C2      21.365837   18.173624   21.419694 C.3        1 MOL1        -0.1684
       5    H3      21.346097   17.734618   20.412812 H          1 MOL1         0.0833
       6    H4      22.336623   17.885192   21.845019 H          1 MOL1         0.0833
       7    C3      20.230043   17.495423   22.229796 C.3        1 MOL1        -0.1684
       8    H5      20.359190   16.408409   22.137473 H          1 MOL1         0.0833
       9    H6      19.271877   17.682623   21.734776 H          1 MOL1         0.0833
      10    C4      20.141298   17.819435   23.750885 C.3        1 MOL1        -0.1760
      11    H7      19.128389   17.584971   24.102781 H          1 MOL1         0.0833
      12    H8      20.806871   17.117161   24.270500 H          1 MOL1         0.0833
      13    C5      20.532432   19.242963   24.221923 C.3        1 MOL1         0.1219
      14    H9      21.561884   19.432950   23.901311 H          1 MOL1         0.0790
      15    C6      19.619321   20.416972   23.764005 C.3        1 MOL1        -0.1760
      16    H10     18.794243   20.512971   24.482120 H          1 MOL1         0.0833
      17    H11     20.191554   21.349929   23.846838 H          1 MOL1         0.0833
      18    C7      18.978007   20.345279   22.351891 C.3        1 MOL1        -0.1684
      19    H12     18.318962   19.473022   22.296756 H          1 MOL1         0.0833
      20    H13     18.288122   21.194898   22.256979 H          1 MOL1         0.0833
      21    C8      19.935192   20.394493   21.125184 C.3        1 MOL1        -0.1684
      22    H14     20.112155   21.452640   20.888778 H          1 MOL1         0.0833
      23    H15     19.413545   19.983012   20.250529 H          1 MOL1         0.0833
      24    O1      20.534722   19.233721   25.643731 O.3        1 MOL1        -0.5508
      25    H16     19.619328   19.024477   25.920985 H          1 MOL1         0.3780
@<TRIPOS>BOND
    1     1     2    1
    2     1     3    1
    3     1     4    1
    4     4     5    1
    5     4     6    1
    6     4     7    1
    7     7     8    1
    8     7     9    1
    9     7    10    1
   10    10    11    1
   11    10    12    1
   12    10    13    1
   13    13    14    1
   14    13    15    1
   15    15    16    1
   16    15    17    1
   17    15    18    1
   18    18    19    1
   19    18    20    1
   20     1    21    1
   21    18    21    1
   22    21    22    1
   23    21    23    1
   24    13    24    1
   25    24    25    1
@<TRIPOS>SUBSTRUCTURE
       1 MOL1            1 RESIDUE      1      MOL     
@<SCITEGIC>MOL_PROPERTY
VM2 Rank
SciTegic.value.IntegerValue
106

@<SCITEGIC>MOL_PROPERTY
Conf_Id
SciTegic.value.IntegerValue
1981

@<SCITEGIC>MOL_PROPERTY
Probability
SciTegic.value.DoubleValue
0.00

@<SCITEGIC>MOL_PROPERTY
Sum Probability
SciTegic.value.DoubleValue
99.98

@<SCITEGIC>MOL_PROPERTY
Delta G
SciTegic.value.DoubleValue
4.254

@<SCITEGIC>MOL_PROPERTY
G
SciTegic.value.DoubleValue
66.330

@<SCITEGIC>MOL_PROPERTY
E
SciTegic.value.DoubleValue
33.671

@<SCITEGIC>MOL_PROPERTY
-TS
SciTegic.value.DoubleValue
32.658

@<SCITEGIC>MOL_PROPERTY
U+W
SciTegic.value.DoubleValue
13.104

@<SCITEGIC>MOL_PROPERTY
U
SciTegic.value.DoubleValue
15.005

@<SCITEGIC>MOL_PROPERTY
W
SciTegic.value.DoubleValue
-1.901

@<SCITEGIC>MOL_PROPERTY
W(PB)
SciTegic.value.DoubleValue
-4.032

@<SCITEGIC>MOL_PROPERTY
W(SA)
SciTegic.value.DoubleValue
2.131

@<SCITEGIC>MOL_PROPERTY
Valence
SciTegic.value.DoubleValue
19.235

@<SCITEGIC>MOL_PROPERTY
Coulomb
SciTegic.value.DoubleValue
-8.450

@<SCITEGIC>MOL_PROPERTY
VdW
SciTegic.value.DoubleValue
4.220

@<SCITEGIC>MOL_PROPERTY
VdW6
SciTegic.value.DoubleValue
-13.530

@<SCITEGIC>MOL_PROPERTY
VdW12
SciTegic.value.DoubleValue
17.749

@<SCITEGIC>MOL_PROPERTY
Bond
SciTegic.value.DoubleValue
0.710

@<SCITEGIC>MOL_PROPERTY
Angle
SciTegic.value.DoubleValue
8.936

@<SCITEGIC>MOL_PROPERTY
Pdih
SciTegic.value.DoubleValue
9.589

@<SCITEGIC>MOL_PROPERTY
Idih
SciTegic.value.DoubleValue
0.000

@<SCITEGIC>MOL_PROPERTY
Tether
SciTegic.value.DoubleValue
0.000

@<TRIPOS>MOLECULE
guest-s17_vm2.mol2 : vm2 ligand conformer 107
          25          25           1
SMALL
USER_CHARGES
 
@<TRIPOS>ATOM
       1    C1      20.721546   19.500554   20.722512 C.3        1 MOL1        -0.1684
       2    H1      21.322639   20.389817   20.489622 H          1 MOL1         0.0833
       3    H2      20.497067   19.037171   19.752115 H          1 MOL1         0.0833
       4    C2      21.597733   18.495152   21.525878 C.3        1 MOL1        -0.1684
       5    H3      22.236172   17.973290   20.799975 H          1 MOL1         0.0833
       6    H4      22.314554   19.024578   22.161373 H          1 MOL1         0.0833
       7    C3      20.864850   17.415516   22.364901 C.3        1 MOL1        -0.1684
       8    H5      21.633909   16.731334   22.748670 H          1 MOL1         0.0833
       9    H6      20.236776   16.806630   21.700746 H          1 MOL1         0.0833
      10    C4      20.008048   17.882672   23.579795 C.3        1 MOL1        -0.1760
      11    H7      18.969119   18.050746   23.281637 H          1 MOL1         0.0833
      12    H8      19.944458   17.032465   24.271698 H          1 MOL1         0.0833
      13    C5      20.506124   19.105805   24.389987 C.3        1 MOL1         0.1219
      14    H9      21.527998   18.889987   24.733447 H          1 MOL1         0.0790
      15    C6      20.528631   20.487878   23.673274 C.3        1 MOL1        -0.1760
      16    H10     20.482138   21.267221   24.445130 H          1 MOL1         0.0833
      17    H11     21.503230   20.657813   23.207406 H          1 MOL1         0.0833
      18    C7      19.409394   20.790866   22.640114 C.3        1 MOL1        -0.1684
      19    H12     19.519703   21.843681   22.346918 H          1 MOL1         0.0833
      20    H13     18.432632   20.725577   23.138503 H          1 MOL1         0.0833
      21    C8      19.366800   19.945189   21.333886 C.3        1 MOL1        -0.1684
      22    H14     18.721433   19.069813   21.457817 H          1 MOL1         0.0833
      23    H15     18.842728   20.545629   20.577887 H          1 MOL1         0.0833
      24    O1      19.660873   19.219369   25.529653 O.3        1 MOL1        -0.5508
      25    H16     20.008661   19.960536   26.067198 H          1 MOL1         0.3780
@<TRIPOS>BOND
    1     1     2    1
    2     1     3    1
    3     1     4    1
    4     4     5    1
    5     4     6    1
    6     4     7    1
    7     7     8    1
    8     7     9    1
    9     7    10    1
   10    10    11    1
   11    10    12    1
   12    10    13    1
   13    13    14    1
   14    13    15    1
   15    15    16    1
   16    15    17    1
   17    15    18    1
   18    18    19    1
   19    18    20    1
   20     1    21    1
   21    18    21    1
   22    21    22    1
   23    21    23    1
   24    13    24    1
   25    24    25    1
@<TRIPOS>SUBSTRUCTURE
       1 MOL1            1 RESIDUE      1      MOL     
@<SCITEGIC>MOL_PROPERTY
VM2 Rank
SciTegic.value.IntegerValue
107

@<SCITEGIC>MOL_PROPERTY
Conf_Id
SciTegic.value.IntegerValue
1668

@<SCITEGIC>MOL_PROPERTY
Probability
SciTegic.value.DoubleValue
0.00

@<SCITEGIC>MOL_PROPERTY
Sum Probability
SciTegic.value.DoubleValue
99.98

@<SCITEGIC>MOL_PROPERTY
Delta G
SciTegic.value.DoubleValue
4.583

@<SCITEGIC>MOL_PROPERTY
G
SciTegic.value.DoubleValue
66.658

@<SCITEGIC>MOL_PROPERTY
E
SciTegic.value.DoubleValue
33.998

@<SCITEGIC>MOL_PROPERTY
-TS
SciTegic.value.DoubleValue
32.661

@<SCITEGIC>MOL_PROPERTY
U+W
SciTegic.value.DoubleValue
13.430

@<SCITEGIC>MOL_PROPERTY
U
SciTegic.value.DoubleValue
15.643

@<SCITEGIC>MOL_PROPERTY
W
SciTegic.value.DoubleValue
-2.213

@<SCITEGIC>MOL_PROPERTY
W(PB)
SciTegic.value.DoubleValue
-4.344

@<SCITEGIC>MOL_PROPERTY
W(SA)
SciTegic.value.DoubleValue
2.131

@<SCITEGIC>MOL_PROPERTY
Valence
SciTegic.value.DoubleValue
18.917

@<SCITEGIC>MOL_PROPERTY
Coulomb
SciTegic.value.DoubleValue
-7.506

@<SCITEGIC>MOL_PROPERTY
VdW
SciTegic.value.DoubleValue
4.232

@<SCITEGIC>MOL_PROPERTY
VdW6
SciTegic.value.DoubleValue
-13.632

@<SCITEGIC>MOL_PROPERTY
VdW12
SciTegic.value.DoubleValue
17.864

@<SCITEGIC>MOL_PROPERTY
Bond
SciTegic.value.DoubleValue
0.735

@<SCITEGIC>MOL_PROPERTY
Angle
SciTegic.value.DoubleValue
9.140

@<SCITEGIC>MOL_PROPERTY
Pdih
SciTegic.value.DoubleValue
9.042

@<SCITEGIC>MOL_PROPERTY
Idih
SciTegic.value.DoubleValue
0.000

@<SCITEGIC>MOL_PROPERTY
Tether
SciTegic.value.DoubleValue
0.000

@<TRIPOS>MOLECULE
guest-s17_vm2.mol2 : vm2 ligand conformer 108
          25          25           1
SMALL
USER_CHARGES
 
@<TRIPOS>ATOM
       1    C1      20.795570   19.287831   20.719694 C.3        1 MOL1        -0.1684
       2    H1      21.856751   19.127526   20.486164 H          1 MOL1         0.0833
       3    H2      20.299480   19.420927   19.748630 H          1 MOL1         0.0833
       4    C2      20.210709   17.997279   21.351546 C.3        1 MOL1        -0.1684
       5    H3      19.129575   18.113952   21.476752 H          1 MOL1         0.0833
       6    H4      20.297814   17.194369   20.606923 H          1 MOL1         0.0833
       7    C3      20.866921   17.476851   22.663704 C.3        1 MOL1        -0.1684
       8    H5      21.717252   16.843201   22.377382 H          1 MOL1         0.0833
       9    H6      20.160698   16.807736   23.173855 H          1 MOL1         0.0833
      10    C4      21.401863   18.522013   23.680257 C.3        1 MOL1        -0.1760
      11    H7      21.947537   17.972864   24.458701 H          1 MOL1         0.0833
      12    H8      22.183901   19.119376   23.203465 H          1 MOL1         0.0833
      13    C5      20.369068   19.448855   24.386380 C.3        1 MOL1         0.1219
      14    H9      20.900667   20.353318   24.715191 H          1 MOL1         0.0790
      15    C6      19.128232   19.895310   23.573022 C.3        1 MOL1        -0.1760
      16    H10     18.550050   19.011155   23.289303 H          1 MOL1         0.0833
      17    H11     18.459975   20.432403   24.259018 H          1 MOL1         0.0833
      18    C7      19.358655   20.824970   22.343817 C.3        1 MOL1        -0.1684
      19    H12     19.374141   21.859700   22.712506 H          1 MOL1         0.0833
      20    H13     18.483632   20.763025   21.682895 H          1 MOL1         0.0833
      21    C8      20.647592   20.624532   21.504084 C.3        1 MOL1        -0.1684
      22    H14     21.523830   20.805133   22.134613 H          1 MOL1         0.0833
      23    H15     20.691620   21.437176   20.766146 H          1 MOL1         0.0833
      24    O1      19.885390   18.765358   25.537496 O.3        1 MOL1        -0.5508
      25    H16     20.668460   18.529388   26.076349 H          1 MOL1         0.3780
@<TRIPOS>BOND
    1     1     2    1
    2     1     3    1
    3     1     4    1
    4     4     5    1
    5     4     6    1
    6     4     7    1
    7     7     8    1
    8     7     9    1
    9     7    10    1
   10    10    11    1
   11    10    12    1
   12    10    13    1
   13    13    14    1
   14    13    15    1
   15    15    16    1
   16    15    17    1
   17    15    18    1
   18    18    19    1
   19    18    20    1
   20     1    21    1
   21    18    21    1
   22    21    22    1
   23    21    23    1
   24    13    24    1
   25    24    25    1
@<TRIPOS>SUBSTRUCTURE
       1 MOL1            1 RESIDUE      1      MOL     
@<SCITEGIC>MOL_PROPERTY
VM2 Rank
SciTegic.value.IntegerValue
108

@<SCITEGIC>MOL_PROPERTY
Conf_Id
SciTegic.value.IntegerValue
1931

@<SCITEGIC>MOL_PROPERTY
Probability
SciTegic.value.DoubleValue
0.00

@<SCITEGIC>MOL_PROPERTY
Sum Probability
SciTegic.value.DoubleValue
99.99

@<SCITEGIC>MOL_PROPERTY
Delta G
SciTegic.value.DoubleValue
4.618

@<SCITEGIC>MOL_PROPERTY
G
SciTegic.value.DoubleValue
66.694

@<SCITEGIC>MOL_PROPERTY
E
SciTegic.value.DoubleValue
34.034

@<SCITEGIC>MOL_PROPERTY
-TS
SciTegic.value.DoubleValue
32.660

@<SCITEGIC>MOL_PROPERTY
U+W
SciTegic.value.DoubleValue
13.466

@<SCITEGIC>MOL_PROPERTY
U
SciTegic.value.DoubleValue
15.643

@<SCITEGIC>MOL_PROPERTY
W
SciTegic.value.DoubleValue
-2.177

@<SCITEGIC>MOL_PROPERTY
W(PB)
SciTegic.value.DoubleValue
-4.308

@<SCITEGIC>MOL_PROPERTY
W(SA)
SciTegic.value.DoubleValue
2.131

@<SCITEGIC>MOL_PROPERTY
Valence
SciTegic.value.DoubleValue
18.916

@<SCITEGIC>MOL_PROPERTY
Coulomb
SciTegic.value.DoubleValue
-7.506

@<SCITEGIC>MOL_PROPERTY
VdW
SciTegic.value.DoubleValue
4.232

@<SCITEGIC>MOL_PROPERTY
VdW6
SciTegic.value.DoubleValue
-13.632

@<SCITEGIC>MOL_PROPERTY
VdW12
SciTegic.value.DoubleValue
17.864

@<SCITEGIC>MOL_PROPERTY
Bond
SciTegic.value.DoubleValue
0.735

@<SCITEGIC>MOL_PROPERTY
Angle
SciTegic.value.DoubleValue
9.139

@<SCITEGIC>MOL_PROPERTY
Pdih
SciTegic.value.DoubleValue
9.043

@<SCITEGIC>MOL_PROPERTY
Idih
SciTegic.value.DoubleValue
0.000

@<SCITEGIC>MOL_PROPERTY
Tether
SciTegic.value.DoubleValue
0.000

@<TRIPOS>MOLECULE
guest-s17_vm2.mol2 : vm2 ligand conformer 109
          25          25           1
SMALL
USER_CHARGES
 
@<TRIPOS>ATOM
       1    C1      20.108298   19.106577   20.654817 C.3        1 MOL1        -0.1684
       2    H1      20.534625   19.685184   19.824121 H          1 MOL1         0.0833
       3    H2      19.356787   18.443545   20.205078 H          1 MOL1         0.0833
       4    C2      21.233746   18.238543   21.275247 C.3        1 MOL1        -0.1684
       5    H3      21.482783   17.458880   20.542436 H          1 MOL1         0.0833
       6    H4      22.154514   18.825454   21.385240 H          1 MOL1         0.0833
       7    C3      20.881700   17.547468   22.616911 C.3        1 MOL1        -0.1684
       8    H5      21.428981   16.595077   22.632403 H          1 MOL1         0.0833
       9    H6      19.821089   17.266091   22.640380 H          1 MOL1         0.0833
      10    C4      21.309760   18.329354   23.897968 C.3        1 MOL1        -0.1760
      11    H7      21.579816   17.579134   24.652583 H          1 MOL1         0.0833
      12    H8      22.237728   18.885545   23.714546 H          1 MOL1         0.0833
      13    C5      20.267667   19.263662   24.571550 C.3        1 MOL1         0.1219
      14    H9      20.598976   19.381361   25.613544 H          1 MOL1         0.0790
      15    C6      20.161380   20.711518   24.017022 C.3        1 MOL1        -0.1760
      16    H10     19.195871   21.132092   24.327962 H          1 MOL1         0.0833
      17    H11     20.920967   21.320482   24.523825 H          1 MOL1         0.0833
      18    C7      20.334123   20.926956   22.491663 C.3        1 MOL1        -0.1684
      19    H12     21.381713   20.764017   22.213622 H          1 MOL1         0.0833
      20    H13     20.147588   21.987117   22.273415 H          1 MOL1         0.0833
      21    C8      19.381991   20.072174   21.620195 C.3        1 MOL1        -0.1684
      22    H14     18.744037   20.741538   21.027515 H          1 MOL1         0.0833
      23    H15     18.686900   19.502806   22.247657 H          1 MOL1         0.0833
      24    O1      18.985335   18.646747   24.614628 O.3        1 MOL1        -0.5508
      25    H16     19.132990   17.723440   24.903152 H          1 MOL1         0.3780
@<TRIPOS>BOND
    1     1     2    1
    2     1     3    1
    3     1     4    1
    4     4     5    1
    5     4     6    1
    6     4     7    1
    7     7     8    1
    8     7     9    1
    9     7    10    1
   10    10    11    1
   11    10    12    1
   12    10    13    1
   13    13    14    1
   14    13    15    1
   15    15    16    1
   16    15    17    1
   17    15    18    1
   18    18    19    1
   19    18    20    1
   20     1    21    1
   21    18    21    1
   22    21    22    1
   23    21    23    1
   24    13    24    1
   25    24    25    1
@<TRIPOS>SUBSTRUCTURE
       1 MOL1            1 RESIDUE      1      MOL     
@<SCITEGIC>MOL_PROPERTY
VM2 Rank
SciTegic.value.IntegerValue
109

@<SCITEGIC>MOL_PROPERTY
Conf_Id
SciTegic.value.IntegerValue
1555

@<SCITEGIC>MOL_PROPERTY
Probability
SciTegic.value.DoubleValue
0.00

@<SCITEGIC>MOL_PROPERTY
Sum Probability
SciTegic.value.DoubleValue
99.99

@<SCITEGIC>MOL_PROPERTY
Delta G
SciTegic.value.DoubleValue
4.677

@<SCITEGIC>MOL_PROPERTY
G
SciTegic.value.DoubleValue
66.752

@<SCITEGIC>MOL_PROPERTY
E
SciTegic.value.DoubleValue
34.239

@<SCITEGIC>MOL_PROPERTY
-TS
SciTegic.value.DoubleValue
32.513

@<SCITEGIC>MOL_PROPERTY
U+W
SciTegic.value.DoubleValue
13.671

@<SCITEGIC>MOL_PROPERTY
U
SciTegic.value.DoubleValue
15.604

@<SCITEGIC>MOL_PROPERTY
W
SciTegic.value.DoubleValue
-1.933

@<SCITEGIC>MOL_PROPERTY
W(PB)
SciTegic.value.DoubleValue
-4.049

@<SCITEGIC>MOL_PROPERTY
W(SA)
SciTegic.value.DoubleValue
2.116

@<SCITEGIC>MOL_PROPERTY
Valence
SciTegic.value.DoubleValue
19.784

@<SCITEGIC>MOL_PROPERTY
Coulomb
SciTegic.value.DoubleValue
-7.373

@<SCITEGIC>MOL_PROPERTY
VdW
SciTegic.value.DoubleValue
3.193

@<SCITEGIC>MOL_PROPERTY
VdW6
SciTegic.value.DoubleValue
-13.422

@<SCITEGIC>MOL_PROPERTY
VdW12
SciTegic.value.DoubleValue
16.615

@<SCITEGIC>MOL_PROPERTY
Bond
SciTegic.value.DoubleValue
0.544

@<SCITEGIC>MOL_PROPERTY
Angle
SciTegic.value.DoubleValue
5.995

@<SCITEGIC>MOL_PROPERTY
Pdih
SciTegic.value.DoubleValue
13.244

@<SCITEGIC>MOL_PROPERTY
Idih
SciTegic.value.DoubleValue
0.000

@<SCITEGIC>MOL_PROPERTY
Tether
SciTegic.value.DoubleValue
0.000

@<TRIPOS>MOLECULE
guest-s17_vm2.mol2 : vm2 ligand conformer 110
          25          25           1
SMALL
USER_CHARGES
 
@<TRIPOS>ATOM
       1    C1      20.171180   19.142971   20.649072 C.3        1 MOL1        -0.1684
       2    H1      20.910978   19.041509   19.843465 H          1 MOL1         0.0833
       3    H2      19.187661   19.073808   20.164766 H          1 MOL1         0.0833
       4    C2      20.315384   17.946572   21.618450 C.3        1 MOL1        -0.1684
       5    H3      19.400661   17.850370   22.214323 H          1 MOL1         0.0833
       6    H4      20.364912   17.023146   21.025886 H          1 MOL1         0.0833
       7    C3      21.561447   18.023442   22.533921 C.3        1 MOL1        -0.1684
       8    H5      22.190081   18.884251   22.278717 H          1 MOL1         0.0833
       9    H6      22.192761   17.146640   22.336363 H          1 MOL1         0.0833
      10    C4      21.233869   18.049653   24.048840 C.3        1 MOL1        -0.1760
      11    H7      20.845098   17.066380   24.345159 H          1 MOL1         0.0833
      12    H8      22.182570   18.162490   24.589111 H          1 MOL1         0.0833
      13    C5      20.258567   19.140988   24.571191 C.3        1 MOL1         0.1219
      14    H9      20.538492   19.292925   25.623771 H          1 MOL1         0.0790
      15    C6      20.348075   20.539921   23.902182 C.3        1 MOL1        -0.1760
      16    H10     19.977329   21.257911   24.645311 H          1 MOL1         0.0833
      17    H11     21.401356   20.810557   23.755649 H          1 MOL1         0.0833
      18    C7      19.535799   20.785682   22.592412 C.3        1 MOL1        -0.1684
      19    H12     19.241349   21.844011   22.599077 H          1 MOL1         0.0833
      20    H13     18.590619   20.227871   22.582259 H          1 MOL1         0.0833
      21    C8      20.321323   20.553027   21.276964 C.3        1 MOL1        -0.1684
      22    H14     21.381209   20.796607   21.424228 H          1 MOL1         0.0833
      23    H15     19.966580   21.278681   20.532323 H          1 MOL1         0.0833
      24    O1      18.918356   18.660744   24.566969 O.3        1 MOL1        -0.5508
      25    H16     18.354690   19.413686   24.836974 H          1 MOL1         0.3780
@<TRIPOS>BOND
    1     1     2    1
    2     1     3    1
    3     1     4    1
    4     4     5    1
    5     4     6    1
    6     4     7    1
    7     7     8    1
    8     7     9    1
    9     7    10    1
   10    10    11    1
   11    10    12    1
   12    10    13    1
   13    13    14    1
   14    13    15    1
   15    15    16    1
   16    15    17    1
   17    15    18    1
   18    18    19    1
   19    18    20    1
   20     1    21    1
   21    18    21    1
   22    21    22    1
   23    21    23    1
   24    13    24    1
   25    24    25    1
@<TRIPOS>SUBSTRUCTURE
       1 MOL1            1 RESIDUE      1      MOL     
@<SCITEGIC>MOL_PROPERTY
VM2 Rank
SciTegic.value.IntegerValue
110

@<SCITEGIC>MOL_PROPERTY
Conf_Id
SciTegic.value.IntegerValue
513

@<SCITEGIC>MOL_PROPERTY
Probability
SciTegic.value.DoubleValue
0.00

@<SCITEGIC>MOL_PROPERTY
Sum Probability
SciTegic.value.DoubleValue
99.99

@<SCITEGIC>MOL_PROPERTY
Delta G
SciTegic.value.DoubleValue
4.700

@<SCITEGIC>MOL_PROPERTY
G
SciTegic.value.DoubleValue
66.776

@<SCITEGIC>MOL_PROPERTY
E
SciTegic.value.DoubleValue
34.262

@<SCITEGIC>MOL_PROPERTY
-TS
SciTegic.value.DoubleValue
32.514

@<SCITEGIC>MOL_PROPERTY
U+W
SciTegic.value.DoubleValue
13.694

@<SCITEGIC>MOL_PROPERTY
U
SciTegic.value.DoubleValue
15.604

@<SCITEGIC>MOL_PROPERTY
W
SciTegic.value.DoubleValue
-1.910

@<SCITEGIC>MOL_PROPERTY
W(PB)
SciTegic.value.DoubleValue
-4.058

@<SCITEGIC>MOL_PROPERTY
W(SA)
SciTegic.value.DoubleValue
2.148

@<SCITEGIC>MOL_PROPERTY
Valence
SciTegic.value.DoubleValue
19.784

@<SCITEGIC>MOL_PROPERTY
Coulomb
SciTegic.value.DoubleValue
-7.372

@<SCITEGIC>MOL_PROPERTY
VdW
SciTegic.value.DoubleValue
3.193

@<SCITEGIC>MOL_PROPERTY
VdW6
SciTegic.value.DoubleValue
-13.422

@<SCITEGIC>MOL_PROPERTY
VdW12
SciTegic.value.DoubleValue
16.615

@<SCITEGIC>MOL_PROPERTY
Bond
SciTegic.value.DoubleValue
0.544

@<SCITEGIC>MOL_PROPERTY
Angle
SciTegic.value.DoubleValue
5.996

@<SCITEGIC>MOL_PROPERTY
Pdih
SciTegic.value.DoubleValue
13.244

@<SCITEGIC>MOL_PROPERTY
Idih
SciTegic.value.DoubleValue
0.000

@<SCITEGIC>MOL_PROPERTY
Tether
SciTegic.value.DoubleValue
0.000

@<TRIPOS>MOLECULE
guest-s17_vm2.mol2 : vm2 ligand conformer 111
          25          25           1
SMALL
USER_CHARGES
 
@<TRIPOS>ATOM
       1    C1      20.726683   19.502949   20.723652 C.3        1 MOL1        -0.1684
       2    H1      20.507116   19.041182   19.751365 H          1 MOL1         0.0833
       3    H2      21.328598   20.392865   20.495422 H          1 MOL1         0.0833
       4    C2      21.598780   18.496578   21.529959 C.3        1 MOL1        -0.1684
       5    H3      22.240968   17.975677   20.806673 H          1 MOL1         0.0833
       6    H4      22.311974   19.025560   22.169987 H          1 MOL1         0.0833
       7    C3      20.860785   17.416162   22.363510 C.3        1 MOL1        -0.1684
       8    H5      21.627197   16.728271   22.746022 H          1 MOL1         0.0833
       9    H6      20.232238   16.811543   21.695859 H          1 MOL1         0.0833
      10    C4      20.003508   17.882171   23.578465 C.3        1 MOL1        -0.1760
      11    H7      18.965961   18.055023   23.277462 H          1 MOL1         0.0833
      12    H8      19.936963   17.027379   24.264095 H          1 MOL1         0.0833
      13    C5      20.506077   19.104257   24.388440 C.3        1 MOL1         0.1219
      14    H9      21.530855   18.891290   24.724964 H          1 MOL1         0.0790
      15    C6      20.523454   20.487006   23.673701 C.3        1 MOL1        -0.1760
      16    H10     20.467397   21.259553   24.452261 H          1 MOL1         0.0833
      17    H11     21.499409   20.664977   23.213726 H          1 MOL1         0.0833
      18    C7      19.405775   20.788246   22.638034 C.3        1 MOL1        -0.1684
      19    H12     19.513004   21.842246   22.348145 H          1 MOL1         0.0833
      20    H13     18.428430   20.718394   23.134627 H          1 MOL1         0.0833
      21    C8      19.369042   19.945690   21.329619 C.3        1 MOL1        -0.1684
      22    H14     18.848029   20.547584   20.572666 H          1 MOL1         0.0833
      23    H15     18.723638   19.069657   21.448956 H          1 MOL1         0.0833
      24    O1      19.669898   19.219940   25.534620 O.3        1 MOL1        -0.5508
      25    H16     19.722322   18.365346   26.010393 H          1 MOL1         0.3780
@<TRIPOS>BOND
    1     1     2    1
    2     1     3    1
    3     1     4    1
    4     4     5    1
    5     4     6    1
    6     4     7    1
    7     7     8    1
    8     7     9    1
    9     7    10    1
   10    10    11    1
   11    10    12    1
   12    10    13    1
   13    13    14    1
   14    13    15    1
   15    15    16    1
   16    15    17    1
   17    15    18    1
   18    18    19    1
   19    18    20    1
   20     1    21    1
   21    18    21    1
   22    21    22    1
   23    21    23    1
   24    13    24    1
   25    24    25    1
@<TRIPOS>SUBSTRUCTURE
       1 MOL1            1 RESIDUE      1      MOL     
@<SCITEGIC>MOL_PROPERTY
VM2 Rank
SciTegic.value.IntegerValue
111

@<SCITEGIC>MOL_PROPERTY
Conf_Id
SciTegic.value.IntegerValue
158

@<SCITEGIC>MOL_PROPERTY
Probability
SciTegic.value.DoubleValue
0.00

@<SCITEGIC>MOL_PROPERTY
Sum Probability
SciTegic.value.DoubleValue
99.99

@<SCITEGIC>MOL_PROPERTY
Delta G
SciTegic.value.DoubleValue
4.702

@<SCITEGIC>MOL_PROPERTY
G
SciTegic.value.DoubleValue
66.777

@<SCITEGIC>MOL_PROPERTY
E
SciTegic.value.DoubleValue
34.090

@<SCITEGIC>MOL_PROPERTY
-TS
SciTegic.value.DoubleValue
32.688

@<SCITEGIC>MOL_PROPERTY
U+W
SciTegic.value.DoubleValue
13.522

@<SCITEGIC>MOL_PROPERTY
U
SciTegic.value.DoubleValue
15.675

@<SCITEGIC>MOL_PROPERTY
W
SciTegic.value.DoubleValue
-2.153

@<SCITEGIC>MOL_PROPERTY
W(PB)
SciTegic.value.DoubleValue
-4.273

@<SCITEGIC>MOL_PROPERTY
W(SA)
SciTegic.value.DoubleValue
2.120

@<SCITEGIC>MOL_PROPERTY
Valence
SciTegic.value.DoubleValue
18.885

@<SCITEGIC>MOL_PROPERTY
Coulomb
SciTegic.value.DoubleValue
-7.469

@<SCITEGIC>MOL_PROPERTY
VdW
SciTegic.value.DoubleValue
4.260

@<SCITEGIC>MOL_PROPERTY
VdW6
SciTegic.value.DoubleValue
-13.645

@<SCITEGIC>MOL_PROPERTY
VdW12
SciTegic.value.DoubleValue
17.904

@<SCITEGIC>MOL_PROPERTY
Bond
SciTegic.value.DoubleValue
0.733

@<SCITEGIC>MOL_PROPERTY
Angle
SciTegic.value.DoubleValue
9.055

@<SCITEGIC>MOL_PROPERTY
Pdih
SciTegic.value.DoubleValue
9.097

@<SCITEGIC>MOL_PROPERTY
Idih
SciTegic.value.DoubleValue
0.000

@<SCITEGIC>MOL_PROPERTY
Tether
SciTegic.value.DoubleValue
0.000

@<TRIPOS>MOLECULE
guest-s17_vm2.mol2 : vm2 ligand conformer 112
          25          25           1
SMALL
USER_CHARGES
 
@<TRIPOS>ATOM
       1    C1      20.800508   19.289838   20.720695 C.3        1 MOL1        -0.1684
       2    H1      21.862687   19.129621   20.491681 H          1 MOL1         0.0833
       3    H2      20.308797   19.425426   19.747751 H          1 MOL1         0.0833
       4    C2      20.212217   17.998475   21.347353 C.3        1 MOL1        -0.1684
       5    H3      19.130602   18.115663   21.468168 H          1 MOL1         0.0833
       6    H4      20.302193   17.196766   20.601782 H          1 MOL1         0.0833
       7    C3      20.862370   17.475867   22.661651 C.3        1 MOL1        -0.1684
       8    H5      21.711429   16.839149   22.378557 H          1 MOL1         0.0833
       9    H6      20.152435   16.809424   23.170111 H          1 MOL1         0.0833
      10    C4      21.397775   18.518740   23.680629 C.3        1 MOL1        -0.1760
      11    H7      21.932073   17.967216   24.465788 H          1 MOL1         0.0833
      12    H8      22.186647   19.111693   23.209644 H          1 MOL1         0.0833
      13    C5      20.368114   19.449895   24.384829 C.3        1 MOL1         0.1219
      14    H9      20.903894   20.354408   24.706652 H          1 MOL1         0.0790
      15    C6      19.124980   19.892492   23.571899 C.3        1 MOL1        -0.1760
      16    H10     18.551055   19.006168   23.285503 H          1 MOL1         0.0833
      17    H11     18.451526   20.430563   24.251696 H          1 MOL1         0.0833
      18    C7      19.356523   20.821617   22.342541 C.3        1 MOL1        -0.1684
      19    H12     19.367692   21.856897   22.709918 H          1 MOL1         0.0833
      20    H13     18.484195   20.756487   21.678315 H          1 MOL1         0.0833
      21    C8      20.649334   20.624287   21.508007 C.3        1 MOL1        -0.1684
      22    H14     21.522941   20.802526   22.142946 H          1 MOL1         0.0833
      23    H15     20.696571   21.439028   20.772581 H          1 MOL1         0.0833
      24    O1      19.892179   18.771789   25.542397 O.3        1 MOL1        -0.5508
      25    H16     19.298512   19.394345   26.010823 H          1 MOL1         0.3780
@<TRIPOS>BOND
    1     1     2    1
    2     1     3    1
    3     1     4    1
    4     4     5    1
    5     4     6    1
    6     4     7    1
    7     7     8    1
    8     7     9    1
    9     7    10    1
   10    10    11    1
   11    10    12    1
   12    10    13    1
   13    13    14    1
   14    13    15    1
   15    15    16    1
   16    15    17    1
   17    15    18    1
   18    18    19    1
   19    18    20    1
   20     1    21    1
   21    18    21    1
   22    21    22    1
   23    21    23    1
   24    13    24    1
   25    24    25    1
@<TRIPOS>SUBSTRUCTURE
       1 MOL1            1 RESIDUE      1      MOL     
@<SCITEGIC>MOL_PROPERTY
VM2 Rank
SciTegic.value.IntegerValue
112

@<SCITEGIC>MOL_PROPERTY
Conf_Id
SciTegic.value.IntegerValue
1535

@<SCITEGIC>MOL_PROPERTY
Probability
SciTegic.value.DoubleValue
0.00

@<SCITEGIC>MOL_PROPERTY
Sum Probability
SciTegic.value.DoubleValue
99.99

@<SCITEGIC>MOL_PROPERTY
Delta G
SciTegic.value.DoubleValue
4.714

@<SCITEGIC>MOL_PROPERTY
G
SciTegic.value.DoubleValue
66.790

@<SCITEGIC>MOL_PROPERTY
E
SciTegic.value.DoubleValue
34.102

@<SCITEGIC>MOL_PROPERTY
-TS
SciTegic.value.DoubleValue
32.688

@<SCITEGIC>MOL_PROPERTY
U+W
SciTegic.value.DoubleValue
13.534

@<SCITEGIC>MOL_PROPERTY
U
SciTegic.value.DoubleValue
15.675

@<SCITEGIC>MOL_PROPERTY
W
SciTegic.value.DoubleValue
-2.141

@<SCITEGIC>MOL_PROPERTY
W(PB)
SciTegic.value.DoubleValue
-4.263

@<SCITEGIC>MOL_PROPERTY
W(SA)
SciTegic.value.DoubleValue
2.122

@<SCITEGIC>MOL_PROPERTY
Valence
SciTegic.value.DoubleValue
18.885

@<SCITEGIC>MOL_PROPERTY
Coulomb
SciTegic.value.DoubleValue
-7.469

@<SCITEGIC>MOL_PROPERTY
VdW
SciTegic.value.DoubleValue
4.259

@<SCITEGIC>MOL_PROPERTY
VdW6
SciTegic.value.DoubleValue
-13.644

@<SCITEGIC>MOL_PROPERTY
VdW12
SciTegic.value.DoubleValue
17.904

@<SCITEGIC>MOL_PROPERTY
Bond
SciTegic.value.DoubleValue
0.733

@<SCITEGIC>MOL_PROPERTY
Angle
SciTegic.value.DoubleValue
9.055

@<SCITEGIC>MOL_PROPERTY
Pdih
SciTegic.value.DoubleValue
9.097

@<SCITEGIC>MOL_PROPERTY
Idih
SciTegic.value.DoubleValue
0.000

@<SCITEGIC>MOL_PROPERTY
Tether
SciTegic.value.DoubleValue
0.000

@<TRIPOS>MOLECULE
guest-s17_vm2.mol2 : vm2 ligand conformer 113
          25          25           1
SMALL
USER_CHARGES
 
@<TRIPOS>ATOM
       1    C1      20.102348   19.108716   20.756820 C.3        1 MOL1        -0.1684
       2    H1      20.691627   18.888899   19.856204 H          1 MOL1         0.0833
       3    H2      19.067137   19.223895   20.408476 H          1 MOL1         0.0833
       4    C2      20.184328   17.860110   21.682622 C.3        1 MOL1        -0.1684
       5    H3      19.258641   17.738860   22.254024 H          1 MOL1         0.0833
       6    H4      20.200477   16.975899   21.031149 H          1 MOL1         0.0833
       7    C3      21.396352   17.753955   22.645442 C.3        1 MOL1        -0.1684
       8    H5      21.341069   16.764616   23.119487 H          1 MOL1         0.0833
       9    H6      22.324314   17.746601   22.058183 H          1 MOL1         0.0833
      10    C4      21.528599   18.810067   23.785236 C.3        1 MOL1        -0.1760
      11    H7      22.152616   18.365118   24.571046 H          1 MOL1         0.0833
      12    H8      22.123759   19.663629   23.449411 H          1 MOL1         0.0833
      13    C5      20.236319   19.341888   24.457550 C.3        1 MOL1         0.1219
      14    H9      20.568548   20.019796   25.256981 H          1 MOL1         0.0790
      15    C6      19.240971   20.150904   23.579661 C.3        1 MOL1        -0.1760
      16    H10     18.497875   19.491921   23.121054 H          1 MOL1         0.0833
      17    H11     18.649605   20.768126   24.268069 H          1 MOL1         0.0833
      18    C7      19.828140   21.098436   22.497767 C.3        1 MOL1        -0.1684
      19    H12     20.467637   21.848240   22.982732 H          1 MOL1         0.0833
      20    H13     18.985219   21.662193   22.075415 H          1 MOL1         0.0833
      21    C8      20.608378   20.467608   21.307617 C.3        1 MOL1        -0.1684
      22    H14     21.675694   20.390353   21.536442 H          1 MOL1         0.0833
      23    H15     20.575708   21.191451   20.481940 H          1 MOL1         0.0833
      24    O1      19.538566   18.251316   25.047286 O.3        1 MOL1        -0.5508
      25    H16     20.205149   17.723746   25.532376 H          1 MOL1         0.3780
@<TRIPOS>BOND
    1     1     2    1
    2     1     3    1
    3     1     4    1
    4     4     5    1
    5     4     6    1
    6     4     7    1
    7     7     8    1
    8     7     9    1
    9     7    10    1
   10    10    11    1
   11    10    12    1
   12    10    13    1
   13    13    14    1
   14    13    15    1
   15    15    16    1
   16    15    17    1
   17    15    18    1
   18    18    19    1
   19    18    20    1
   20     1    21    1
   21    18    21    1
   22    21    22    1
   23    21    23    1
   24    13    24    1
   25    24    25    1
@<TRIPOS>SUBSTRUCTURE
       1 MOL1            1 RESIDUE      1      MOL     
@<SCITEGIC>MOL_PROPERTY
VM2 Rank
SciTegic.value.IntegerValue
113

@<SCITEGIC>MOL_PROPERTY
Conf_Id
SciTegic.value.IntegerValue
538

@<SCITEGIC>MOL_PROPERTY
Probability
SciTegic.value.DoubleValue
0.00

@<SCITEGIC>MOL_PROPERTY
Sum Probability
SciTegic.value.DoubleValue
99.99

@<SCITEGIC>MOL_PROPERTY
Delta G
SciTegic.value.DoubleValue
4.752

@<SCITEGIC>MOL_PROPERTY
G
SciTegic.value.DoubleValue
66.828

@<SCITEGIC>MOL_PROPERTY
E
SciTegic.value.DoubleValue
34.160

@<SCITEGIC>MOL_PROPERTY
-TS
SciTegic.value.DoubleValue
32.668

@<SCITEGIC>MOL_PROPERTY
U+W
SciTegic.value.DoubleValue
13.592

@<SCITEGIC>MOL_PROPERTY
U
SciTegic.value.DoubleValue
15.621

@<SCITEGIC>MOL_PROPERTY
W
SciTegic.value.DoubleValue
-2.028

@<SCITEGIC>MOL_PROPERTY
W(PB)
SciTegic.value.DoubleValue
-4.146

@<SCITEGIC>MOL_PROPERTY
W(SA)
SciTegic.value.DoubleValue
2.117

@<SCITEGIC>MOL_PROPERTY
Valence
SciTegic.value.DoubleValue
18.961

@<SCITEGIC>MOL_PROPERTY
Coulomb
SciTegic.value.DoubleValue
-7.191

@<SCITEGIC>MOL_PROPERTY
VdW
SciTegic.value.DoubleValue
3.851

@<SCITEGIC>MOL_PROPERTY
VdW6
SciTegic.value.DoubleValue
-13.972

@<SCITEGIC>MOL_PROPERTY
VdW12
SciTegic.value.DoubleValue
17.823

@<SCITEGIC>MOL_PROPERTY
Bond
SciTegic.value.DoubleValue
0.726

@<SCITEGIC>MOL_PROPERTY
Angle
SciTegic.value.DoubleValue
9.581

@<SCITEGIC>MOL_PROPERTY
Pdih
SciTegic.value.DoubleValue
8.653

@<SCITEGIC>MOL_PROPERTY
Idih
SciTegic.value.DoubleValue
0.000

@<SCITEGIC>MOL_PROPERTY
Tether
SciTegic.value.DoubleValue
0.000

@<TRIPOS>MOLECULE
guest-s17_vm2.mol2 : vm2 ligand conformer 114
          25          25           1
SMALL
USER_CHARGES
 
@<TRIPOS>ATOM
       1    C1      20.080604   19.093139   20.759700 C.3        1 MOL1        -0.1684
       2    H1      19.454849   18.253101   20.429493 H          1 MOL1         0.0833
       3    H2      20.317502   19.657984   19.847830 H          1 MOL1         0.0833
       4    C2      21.421650   18.542841   21.311785 C.3        1 MOL1        -0.1684
       5    H3      21.922532   18.010066   20.492013 H          1 MOL1         0.0833
       6    H4      22.096302   19.378335   21.522233 H          1 MOL1         0.0833
       7    C3      21.355942   17.562645   22.519290 C.3        1 MOL1        -0.1684
       8    H5      22.343311   17.524945   22.998910 H          1 MOL1         0.0833
       9    H6      21.188527   16.555005   22.115119 H          1 MOL1         0.0833
      10    C4      20.269672   17.800468   23.603972 C.3        1 MOL1        -0.1760
      11    H7      19.277925   17.700894   23.153091 H          1 MOL1         0.0833
      12    H8      20.320104   16.958822   24.306588 H          1 MOL1         0.0833
      13    C5      20.365061   19.094796   24.459270 C.3        1 MOL1         0.1219
      14    H9      21.091841   18.887468   25.257916 H          1 MOL1         0.0790
      15    C6      20.856204   20.389776   23.761677 C.3        1 MOL1        -0.1760
      16    H10     20.962855   21.162705   24.533740 H          1 MOL1         0.0833
      17    H11     21.883955   20.234813   23.422151 H          1 MOL1         0.0833
      18    C7      19.988039   20.995733   22.616645 C.3        1 MOL1        -0.1684
      19    H12     19.231113   21.639824   23.084383 H          1 MOL1         0.0833
      20    H13     20.613438   21.667802   22.013949 H          1 MOL1         0.0833
      21    C8      19.231056   20.022328   21.674970 C.3        1 MOL1        -0.1684
      22    H14     18.592777   20.627406   21.016954 H          1 MOL1         0.0833
      23    H15     18.513268   19.439548   22.260841 H          1 MOL1         0.0833
      24    O1      19.095771   19.341275   25.052691 O.3        1 MOL1        -0.5508
      25    H16     19.169422   20.196559   25.522843 H          1 MOL1         0.3780
@<TRIPOS>BOND
    1     1     2    1
    2     1     3    1
    3     1     4    1
    4     4     5    1
    5     4     6    1
    6     4     7    1
    7     7     8    1
    8     7     9    1
    9     7    10    1
   10    10    11    1
   11    10    12    1
   12    10    13    1
   13    13    14    1
   14    13    15    1
   15    15    16    1
   16    15    17    1
   17    15    18    1
   18    18    19    1
   19    18    20    1
   20     1    21    1
   21    18    21    1
   22    21    22    1
   23    21    23    1
   24    13    24    1
   25    24    25    1
@<TRIPOS>SUBSTRUCTURE
       1 MOL1            1 RESIDUE      1      MOL     
@<SCITEGIC>MOL_PROPERTY
VM2 Rank
SciTegic.value.IntegerValue
114

@<SCITEGIC>MOL_PROPERTY
Conf_Id
SciTegic.value.IntegerValue
1300

@<SCITEGIC>MOL_PROPERTY
Probability
SciTegic.value.DoubleValue
0.00

@<SCITEGIC>MOL_PROPERTY
Sum Probability
SciTegic.value.DoubleValue
100.00

@<SCITEGIC>MOL_PROPERTY
Delta G
SciTegic.value.DoubleValue
4.771

@<SCITEGIC>MOL_PROPERTY
G
SciTegic.value.DoubleValue
66.846

@<SCITEGIC>MOL_PROPERTY
E
SciTegic.value.DoubleValue
34.179

@<SCITEGIC>MOL_PROPERTY
-TS
SciTegic.value.DoubleValue
32.668

@<SCITEGIC>MOL_PROPERTY
U+W
SciTegic.value.DoubleValue
13.611

@<SCITEGIC>MOL_PROPERTY
U
SciTegic.value.DoubleValue
15.621

@<SCITEGIC>MOL_PROPERTY
W
SciTegic.value.DoubleValue
-2.009

@<SCITEGIC>MOL_PROPERTY
W(PB)
SciTegic.value.DoubleValue
-4.125

@<SCITEGIC>MOL_PROPERTY
W(SA)
SciTegic.value.DoubleValue
2.115

@<SCITEGIC>MOL_PROPERTY
Valence
SciTegic.value.DoubleValue
18.961

@<SCITEGIC>MOL_PROPERTY
Coulomb
SciTegic.value.DoubleValue
-7.191

@<SCITEGIC>MOL_PROPERTY
VdW
SciTegic.value.DoubleValue
3.851

@<SCITEGIC>MOL_PROPERTY
VdW6
SciTegic.value.DoubleValue
-13.971

@<SCITEGIC>MOL_PROPERTY
VdW12
SciTegic.value.DoubleValue
17.822

@<SCITEGIC>MOL_PROPERTY
Bond
SciTegic.value.DoubleValue
0.726

@<SCITEGIC>MOL_PROPERTY
Angle
SciTegic.value.DoubleValue
9.581

@<SCITEGIC>MOL_PROPERTY
Pdih
SciTegic.value.DoubleValue
8.653

@<SCITEGIC>MOL_PROPERTY
Idih
SciTegic.value.DoubleValue
0.000

@<SCITEGIC>MOL_PROPERTY
Tether
SciTegic.value.DoubleValue
0.000

@<TRIPOS>MOLECULE
guest-s17_vm2.mol2 : vm2 ligand conformer 115
          25          25           1
SMALL
USER_CHARGES
 
@<TRIPOS>ATOM
       1    C1      20.107738   19.107616   20.654238 C.3        1 MOL1        -0.1684
       2    H1      20.533315   19.687584   19.824110 H          1 MOL1         0.0833
       3    H2      19.357255   18.443715   20.204063 H          1 MOL1         0.0833
       4    C2      21.234187   18.240876   21.274724 C.3        1 MOL1        -0.1684
       5    H3      21.484986   17.462173   20.541527 H          1 MOL1         0.0833
       6    H4      22.154077   18.828759   21.386529 H          1 MOL1         0.0833
       7    C3      20.882036   17.548076   22.615579 C.3        1 MOL1        -0.1684
       8    H5      21.427430   16.594751   22.630031 H          1 MOL1         0.0833
       9    H6      19.820891   17.268121   22.643088 H          1 MOL1         0.0833
      10    C4      21.308667   18.325410   23.899653 C.3        1 MOL1        -0.1760
      11    H7      21.563302   17.570283   24.654570 H          1 MOL1         0.0833
      12    H8      22.242197   18.874513   23.724254 H          1 MOL1         0.0833
      13    C5      20.267477   19.262562   24.571369 C.3        1 MOL1         0.1219
      14    H9      20.599655   19.379350   25.613192 H          1 MOL1         0.0790
      15    C6      20.167965   20.711427   24.016522 C.3        1 MOL1        -0.1760
      16    H10     19.211555   21.147409   24.333192 H          1 MOL1         0.0833
      17    H11     20.938749   21.312446   24.516266 H          1 MOL1         0.0833
      18    C7      20.333263   20.926478   22.490619 C.3        1 MOL1        -0.1684
      19    H12     21.380175   20.764954   22.209131 H          1 MOL1         0.0833
      20    H13     20.145485   21.986530   22.272696 H          1 MOL1         0.0833
      21    C8      19.380330   20.070834   21.620962 C.3        1 MOL1        -0.1684
      22    H14     18.740175   20.739267   21.029568 H          1 MOL1         0.0833
      23    H15     18.687935   19.498346   22.248139 H          1 MOL1         0.0833
      24    O1      18.982337   18.649722   24.616334 O.3        1 MOL1        -0.5508
      25    H16     18.388953   19.271860   25.083562 H          1 MOL1         0.3780
@<TRIPOS>BOND
    1     1     2    1
    2     1     3    1
    3     1     4    1
    4     4     5    1
    5     4     6    1
    6     4     7    1
    7     7     8    1
    8     7     9    1
    9     7    10    1
   10    10    11    1
   11    10    12    1
   12    10    13    1
   13    13    14    1
   14    13    15    1
   15    15    16    1
   16    15    17    1
   17    15    18    1
   18    18    19    1
   19    18    20    1
   20     1    21    1
   21    18    21    1
   22    21    22    1
   23    21    23    1
   24    13    24    1
   25    24    25    1
@<TRIPOS>SUBSTRUCTURE
       1 MOL1            1 RESIDUE      1      MOL     
@<SCITEGIC>MOL_PROPERTY
VM2 Rank
SciTegic.value.IntegerValue
115

@<SCITEGIC>MOL_PROPERTY
Conf_Id
SciTegic.value.IntegerValue
1236

@<SCITEGIC>MOL_PROPERTY
Probability
SciTegic.value.DoubleValue
0.00

@<SCITEGIC>MOL_PROPERTY
Sum Probability
SciTegic.value.DoubleValue
100.00

@<SCITEGIC>MOL_PROPERTY
Delta G
SciTegic.value.DoubleValue
5.059

@<SCITEGIC>MOL_PROPERTY
G
SciTegic.value.DoubleValue
67.134

@<SCITEGIC>MOL_PROPERTY
E
SciTegic.value.DoubleValue
34.614

@<SCITEGIC>MOL_PROPERTY
-TS
SciTegic.value.DoubleValue
32.520

@<SCITEGIC>MOL_PROPERTY
U+W
SciTegic.value.DoubleValue
14.046

@<SCITEGIC>MOL_PROPERTY
U
SciTegic.value.DoubleValue
16.200

@<SCITEGIC>MOL_PROPERTY
W
SciTegic.value.DoubleValue
-2.154

@<SCITEGIC>MOL_PROPERTY
W(PB)
SciTegic.value.DoubleValue
-4.283

@<SCITEGIC>MOL_PROPERTY
W(SA)
SciTegic.value.DoubleValue
2.129

@<SCITEGIC>MOL_PROPERTY
Valence
SciTegic.value.DoubleValue
19.712

@<SCITEGIC>MOL_PROPERTY
Coulomb
SciTegic.value.DoubleValue
-6.683

@<SCITEGIC>MOL_PROPERTY
VdW
SciTegic.value.DoubleValue
3.171

@<SCITEGIC>MOL_PROPERTY
VdW6
SciTegic.value.DoubleValue
-13.375

@<SCITEGIC>MOL_PROPERTY
VdW12
SciTegic.value.DoubleValue
16.546

@<SCITEGIC>MOL_PROPERTY
Bond
SciTegic.value.DoubleValue
0.548

@<SCITEGIC>MOL_PROPERTY
Angle
SciTegic.value.DoubleValue
6.059

@<SCITEGIC>MOL_PROPERTY
Pdih
SciTegic.value.DoubleValue
13.105

@<SCITEGIC>MOL_PROPERTY
Idih
SciTegic.value.DoubleValue
0.000

@<SCITEGIC>MOL_PROPERTY
Tether
SciTegic.value.DoubleValue
0.000

@<TRIPOS>MOLECULE
guest-s17_vm2.mol2 : vm2 ligand conformer 116
          25          25           1
SMALL
USER_CHARGES
 
@<TRIPOS>ATOM
       1    C1      21.046771   19.471491   20.896109 C.3        1 MOL1        -0.1684
       2    H1      20.726140   19.819074   19.904613 H          1 MOL1         0.0833
       3    H2      22.128220   19.299938   20.810661 H          1 MOL1         0.0833
       4    C2      20.335171   18.117389   21.152377 C.3        1 MOL1        -0.1684
       5    H3      19.251656   18.263977   21.109830 H          1 MOL1         0.0833
       6    H4      20.539472   17.468564   20.289796 H          1 MOL1         0.0833
       7    C3      20.739627   17.321343   22.427143 C.3        1 MOL1        -0.1684
       8    H5      21.633969   16.734374   22.177347 H          1 MOL1         0.0833
       9    H6      19.956735   16.582659   22.645873 H          1 MOL1         0.0833
      10    C4      21.067095   18.116667   23.720483 C.3        1 MOL1        -0.1760
      11    H7      21.420522   17.390865   24.464186 H          1 MOL1         0.0833
      12    H8      21.939096   18.752876   23.543189 H          1 MOL1         0.0833
      13    C5      19.915442   18.916730   24.391453 C.3        1 MOL1         0.1219
      14    H9      19.337248   18.192598   24.983363 H          1 MOL1         0.0790
      15    C6      18.889300   19.624294   23.469003 C.3        1 MOL1        -0.1760
      16    H10     18.346045   18.864813   22.900341 H          1 MOL1         0.0833
      17    H11     18.115693   20.056473   24.116905 H          1 MOL1         0.0833
      18    C7      19.388167   20.762941   22.527117 C.3        1 MOL1        -0.1684
      19    H12     19.382593   21.693164   23.111462 H          1 MOL1         0.0833
      20    H13     18.649657   20.912631   21.728339 H          1 MOL1         0.0833
      21    C8      20.801163   20.635998   21.899161 C.3        1 MOL1        -0.1684
      22    H14     21.549621   20.626915   22.697543 H          1 MOL1         0.0833
      23    H15     21.010421   21.572112   21.364013 H          1 MOL1         0.0833
      24    O1      20.481264   19.876147   25.277154 O.3        1 MOL1        -0.5508
      25    H16     21.078180   19.386450   25.879263 H          1 MOL1         0.3780
@<TRIPOS>BOND
    1     1     2    1
    2     1     3    1
    3     1     4    1
    4     4     5    1
    5     4     6    1
    6     4     7    1
    7     7     8    1
    8     7     9    1
    9     7    10    1
   10    10    11    1
   11    10    12    1
   12    10    13    1
   13    13    14    1
   14    13    15    1
   15    15    16    1
   16    15    17    1
   17    15    18    1
   18    18    19    1
   19    18    20    1
   20     1    21    1
   21    18    21    1
   22    21    22    1
   23    21    23    1
   24    13    24    1
   25    24    25    1
@<TRIPOS>SUBSTRUCTURE
       1 MOL1            1 RESIDUE      1      MOL     
@<SCITEGIC>MOL_PROPERTY
VM2 Rank
SciTegic.value.IntegerValue
116

@<SCITEGIC>MOL_PROPERTY
Conf_Id
SciTegic.value.IntegerValue
1948

@<SCITEGIC>MOL_PROPERTY
Probability
SciTegic.value.DoubleValue
0.00

@<SCITEGIC>MOL_PROPERTY
Sum Probability
SciTegic.value.DoubleValue
100.00

@<SCITEGIC>MOL_PROPERTY
Delta G
SciTegic.value.DoubleValue
5.121

@<SCITEGIC>MOL_PROPERTY
G
SciTegic.value.DoubleValue
67.196

@<SCITEGIC>MOL_PROPERTY
E
SciTegic.value.DoubleValue
34.488

@<SCITEGIC>MOL_PROPERTY
-TS
SciTegic.value.DoubleValue
32.708

@<SCITEGIC>MOL_PROPERTY
U+W
SciTegic.value.DoubleValue
13.920

@<SCITEGIC>MOL_PROPERTY
U
SciTegic.value.DoubleValue
16.068

@<SCITEGIC>MOL_PROPERTY
W
SciTegic.value.DoubleValue
-2.147

@<SCITEGIC>MOL_PROPERTY
W(PB)
SciTegic.value.DoubleValue
-4.261

@<SCITEGIC>MOL_PROPERTY
W(SA)
SciTegic.value.DoubleValue
2.114

@<SCITEGIC>MOL_PROPERTY
Valence
SciTegic.value.DoubleValue
18.913

@<SCITEGIC>MOL_PROPERTY
Coulomb
SciTegic.value.DoubleValue
-6.661

@<SCITEGIC>MOL_PROPERTY
VdW
SciTegic.value.DoubleValue
3.816

@<SCITEGIC>MOL_PROPERTY
VdW6
SciTegic.value.DoubleValue
-13.863

@<SCITEGIC>MOL_PROPERTY
VdW12
SciTegic.value.DoubleValue
17.679

@<SCITEGIC>MOL_PROPERTY
Bond
SciTegic.value.DoubleValue
0.725

@<SCITEGIC>MOL_PROPERTY
Angle
SciTegic.value.DoubleValue
9.703

@<SCITEGIC>MOL_PROPERTY
Pdih
SciTegic.value.DoubleValue
8.485

@<SCITEGIC>MOL_PROPERTY
Idih
SciTegic.value.DoubleValue
0.000

@<SCITEGIC>MOL_PROPERTY
Tether
SciTegic.value.DoubleValue
0.000

@<TRIPOS>MOLECULE
guest-s17_vm2.mol2 : vm2 ligand conformer 117
          25          25           1
SMALL
USER_CHARGES
 
@<TRIPOS>ATOM
       1    C1      20.090230   19.096936   20.753492 C.3        1 MOL1        -0.1684
       2    H1      19.467797   18.258158   20.413946 H          1 MOL1         0.0833
       3    H2      20.334972   19.666022   19.846340 H          1 MOL1         0.0833
       4    C2      21.426433   18.544710   21.314964 C.3        1 MOL1        -0.1684
       5    H3      21.934110   18.014682   20.497593 H          1 MOL1         0.0833
       6    H4      22.099480   19.379124   21.534194 H          1 MOL1         0.0833
       7    C3      21.349903   17.560300   22.518035 C.3        1 MOL1        -0.1684
       8    H5      22.335688   17.514058   23.000225 H          1 MOL1         0.0833
       9    H6      21.176891   16.555463   22.109198 H          1 MOL1         0.0833
      10    C4      20.262624   17.801656   23.600661 C.3        1 MOL1        -0.1760
      11    H7      19.272089   17.708522   23.145971 H          1 MOL1         0.0833
      12    H8      20.309834   16.955945   24.298760 H          1 MOL1         0.0833
      13    C5      20.367312   19.093677   24.458758 C.3        1 MOL1         0.1219
      14    H9      21.105400   18.884984   25.246607 H          1 MOL1         0.0790
      15    C6      20.849163   20.391904   23.760936 C.3        1 MOL1        -0.1760
      16    H10     20.939516   21.162452   24.537542 H          1 MOL1         0.0833
      17    H11     21.880300   20.249097   23.426764 H          1 MOL1         0.0833
      18    C7      19.979244   20.994486   22.615218 C.3        1 MOL1        -0.1684
      19    H12     20.599760   21.676630   22.018989 H          1 MOL1         0.0833
      20    H13     19.215146   21.627509   23.086644 H          1 MOL1         0.0833
      21    C8      19.232212   20.021522   21.665333 C.3        1 MOL1        -0.1684
      22    H14     18.597378   20.627050   21.004421 H          1 MOL1         0.0833
      23    H15     18.511011   19.436787   22.244671 H          1 MOL1         0.0833
      24    O1      19.106878   19.337810   25.072602 O.3        1 MOL1        -0.5508
      25    H16     18.862088   18.518450   25.549440 H          1 MOL1         0.3780
@<TRIPOS>BOND
    1     1     2    1
    2     1     3    1
    3     1     4    1
    4     4     5    1
    5     4     6    1
    6     4     7    1
    7     7     8    1
    8     7     9    1
    9     7    10    1
   10    10    11    1
   11    10    12    1
   12    10    13    1
   13    13    14    1
   14    13    15    1
   15    15    16    1
   16    15    17    1
   17    15    18    1
   18    18    19    1
   19    18    20    1
   20     1    21    1
   21    18    21    1
   22    21    22    1
   23    21    23    1
   24    13    24    1
   25    24    25    1
@<TRIPOS>SUBSTRUCTURE
       1 MOL1            1 RESIDUE      1      MOL     
@<SCITEGIC>MOL_PROPERTY
VM2 Rank
SciTegic.value.IntegerValue
117

@<SCITEGIC>MOL_PROPERTY
Conf_Id
SciTegic.value.IntegerValue
1360

@<SCITEGIC>MOL_PROPERTY
Probability
SciTegic.value.DoubleValue
0.00

@<SCITEGIC>MOL_PROPERTY
Sum Probability
SciTegic.value.DoubleValue
100.00

@<SCITEGIC>MOL_PROPERTY
Delta G
SciTegic.value.DoubleValue
5.128

@<SCITEGIC>MOL_PROPERTY
G
SciTegic.value.DoubleValue
67.203

@<SCITEGIC>MOL_PROPERTY
E
SciTegic.value.DoubleValue
34.495

@<SCITEGIC>MOL_PROPERTY
-TS
SciTegic.value.DoubleValue
32.708

@<SCITEGIC>MOL_PROPERTY
U+W
SciTegic.value.DoubleValue
13.928

@<SCITEGIC>MOL_PROPERTY
U
SciTegic.value.DoubleValue
16.068

@<SCITEGIC>MOL_PROPERTY
W
SciTegic.value.DoubleValue
-2.140

@<SCITEGIC>MOL_PROPERTY
W(PB)
SciTegic.value.DoubleValue
-4.259

@<SCITEGIC>MOL_PROPERTY
W(SA)
SciTegic.value.DoubleValue
2.119

@<SCITEGIC>MOL_PROPERTY
Valence
SciTegic.value.DoubleValue
18.914

@<SCITEGIC>MOL_PROPERTY
Coulomb
SciTegic.value.DoubleValue
-6.661

@<SCITEGIC>MOL_PROPERTY
VdW
SciTegic.value.DoubleValue
3.815

@<SCITEGIC>MOL_PROPERTY
VdW6
SciTegic.value.DoubleValue
-13.862

@<SCITEGIC>MOL_PROPERTY
VdW12
SciTegic.value.DoubleValue
17.677

@<SCITEGIC>MOL_PROPERTY
Bond
SciTegic.value.DoubleValue
0.725

@<SCITEGIC>MOL_PROPERTY
Angle
SciTegic.value.DoubleValue
9.707

@<SCITEGIC>MOL_PROPERTY
Pdih
SciTegic.value.DoubleValue
8.482

@<SCITEGIC>MOL_PROPERTY
Idih
SciTegic.value.DoubleValue
0.000

@<SCITEGIC>MOL_PROPERTY
Tether
SciTegic.value.DoubleValue
0.000

@<TRIPOS>MOLECULE
guest-s17_vm2.mol2 : vm2 ligand conformer 118
          25          25           1
SMALL
USER_CHARGES
 
@<TRIPOS>ATOM
       1    C1      20.151756   19.141079   20.753016 C.3        1 MOL1        -0.1684
       2    H1      19.448742   18.872275   19.953012 H          1 MOL1         0.0833
       3    H2      21.062409   19.483811   20.243341 H          1 MOL1         0.0833
       4    C2      20.465771   17.854071   21.557302 C.3        1 MOL1        -0.1684
       5    H3      19.559537   17.461890   22.033155 H          1 MOL1         0.0833
       6    H4      20.759321   17.085841   20.829099 H          1 MOL1         0.0833
       7    C3      21.623868   17.996609   22.577085 C.3        1 MOL1        -0.1684
       8    H5      22.299157   18.806097   22.279516 H          1 MOL1         0.0833
       9    H6      22.243548   17.092374   22.505563 H          1 MOL1         0.0833
      10    C4      21.219781   18.143421   24.070938 C.3        1 MOL1        -0.1760
      11    H7      20.930807   17.150958   24.440262 H          1 MOL1         0.0833
      12    H8      22.124329   18.404480   24.635274 H          1 MOL1         0.0833
      13    C5      20.101430   19.138403   24.483604 C.3        1 MOL1         0.1219
      14    H9      20.131917   19.154502   25.582652 H          1 MOL1         0.0790
      15    C6      20.262759   20.623250   24.061247 C.3        1 MOL1        -0.1760
      16    H10     19.365599   21.155722   24.403198 H          1 MOL1         0.0833
      17    H11     21.090910   21.050793   24.640701 H          1 MOL1         0.0833
      18    C7      20.491859   20.985441   22.567296 C.3        1 MOL1        -0.1684
      19    H12     21.536085   20.816110   22.283785 H          1 MOL1         0.0833
      20    H13     20.363614   22.073123   22.483100 H          1 MOL1         0.0833
      21    C8      19.533511   20.318916   21.548091 C.3        1 MOL1        -0.1684
      22    H14     19.244292   21.084302   20.815279 H          1 MOL1         0.0833
      23    H15     18.594970   20.014605   22.027091 H          1 MOL1         0.0833
      24    O1      18.813264   18.641811   24.141421 O.3        1 MOL1        -0.5508
      25    H16     18.807300   17.693420   24.378929 H          1 MOL1         0.3780
@<TRIPOS>BOND
    1     1     2    1
    2     1     3    1
    3     1     4    1
    4     4     5    1
    5     4     6    1
    6     4     7    1
    7     7     8    1
    8     7     9    1
    9     7    10    1
   10    10    11    1
   11    10    12    1
   12    10    13    1
   13    13    14    1
   14    13    15    1
   15    15    16    1
   16    15    17    1
   17    15    18    1
   18    18    19    1
   19    18    20    1
   20     1    21    1
   21    18    21    1
   22    21    22    1
   23    21    23    1
   24    13    24    1
   25    24    25    1
@<TRIPOS>SUBSTRUCTURE
       1 MOL1            1 RESIDUE      1      MOL     
@<SCITEGIC>MOL_PROPERTY
VM2 Rank
SciTegic.value.IntegerValue
118

@<SCITEGIC>MOL_PROPERTY
Conf_Id
SciTegic.value.IntegerValue
1299

@<SCITEGIC>MOL_PROPERTY
Probability
SciTegic.value.DoubleValue
0.00

@<SCITEGIC>MOL_PROPERTY
Sum Probability
SciTegic.value.DoubleValue
100.00

@<SCITEGIC>MOL_PROPERTY
Delta G
SciTegic.value.DoubleValue
5.540

@<SCITEGIC>MOL_PROPERTY
G
SciTegic.value.DoubleValue
67.615

@<SCITEGIC>MOL_PROPERTY
E
SciTegic.value.DoubleValue
34.890

@<SCITEGIC>MOL_PROPERTY
-TS
SciTegic.value.DoubleValue
32.725

@<SCITEGIC>MOL_PROPERTY
U+W
SciTegic.value.DoubleValue
14.323

@<SCITEGIC>MOL_PROPERTY
U
SciTegic.value.DoubleValue
16.213

@<SCITEGIC>MOL_PROPERTY
W
SciTegic.value.DoubleValue
-1.891

@<SCITEGIC>MOL_PROPERTY
W(PB)
SciTegic.value.DoubleValue
-4.002

@<SCITEGIC>MOL_PROPERTY
W(SA)
SciTegic.value.DoubleValue
2.111

@<SCITEGIC>MOL_PROPERTY
Valence
SciTegic.value.DoubleValue
19.752

@<SCITEGIC>MOL_PROPERTY
Coulomb
SciTegic.value.DoubleValue
-6.007

@<SCITEGIC>MOL_PROPERTY
VdW
SciTegic.value.DoubleValue
2.468

@<SCITEGIC>MOL_PROPERTY
VdW6
SciTegic.value.DoubleValue
-13.673

@<SCITEGIC>MOL_PROPERTY
VdW12
SciTegic.value.DoubleValue
16.141

@<SCITEGIC>MOL_PROPERTY
Bond
SciTegic.value.DoubleValue
0.503

@<SCITEGIC>MOL_PROPERTY
Angle
SciTegic.value.DoubleValue
8.543

@<SCITEGIC>MOL_PROPERTY
Pdih
SciTegic.value.DoubleValue
10.706

@<SCITEGIC>MOL_PROPERTY
Idih
SciTegic.value.DoubleValue
0.000

@<SCITEGIC>MOL_PROPERTY
Tether
SciTegic.value.DoubleValue
0.000

@<TRIPOS>MOLECULE
guest-s17_vm2.mol2 : vm2 ligand conformer 119
          25          25           1
SMALL
USER_CHARGES
 
@<TRIPOS>ATOM
       1    C1      20.151313   19.142347   20.753014 C.3        1 MOL1        -0.1684
       2    H1      19.449333   18.870781   19.953034 H          1 MOL1         0.0833
       3    H2      21.060933   19.487767   20.243309 H          1 MOL1         0.0833
       4    C2      20.469734   17.856675   21.557585 C.3        1 MOL1        -0.1684
       5    H3      19.564863   17.463761   22.036887 H          1 MOL1         0.0833
       6    H4      20.763999   17.087580   20.830688 H          1 MOL1         0.0833
       7    C3      21.626169   18.002098   22.578846 C.3        1 MOL1        -0.1684
       8    H5      22.294851   18.820507   22.291567 H          1 MOL1         0.0833
       9    H6      22.253170   17.103431   22.502326 H          1 MOL1         0.0833
      10    C4      21.210417   18.130617   24.070887 C.3        1 MOL1        -0.1760
      11    H7      20.892730   17.138917   24.418681 H          1 MOL1         0.0833
      12    H8      22.111915   18.365161   24.651132 H          1 MOL1         0.0833
      13    C5      20.102269   19.136028   24.483600 C.3        1 MOL1         0.1219
      14    H9      20.132881   19.151642   25.582652 H          1 MOL1         0.0790
      15    C6      20.278200   20.619871   24.061399 C.3        1 MOL1        -0.1760
      16    H10     19.401920   21.172132   24.424758 H          1 MOL1         0.0833
      17    H11     21.126254   21.029487   24.625185 H          1 MOL1         0.0833
      18    C7      20.486534   20.988010   22.565567 C.3        1 MOL1        -0.1684
      19    H12     20.349120   22.075028   22.486383 H          1 MOL1         0.0833
      20    H13     21.529811   20.829662   22.271743 H          1 MOL1         0.0833
      21    C8      19.528904   20.318280   21.547788 C.3        1 MOL1        -0.1684
      22    H14     19.239818   21.082562   20.813668 H          1 MOL1         0.0833
      23    H15     18.589792   20.012542   22.023281 H          1 MOL1         0.0833
      24    O1      18.810458   18.649075   24.141314 O.3        1 MOL1        -0.5508
      25    H16     18.175323   19.355548   24.372374 H          1 MOL1         0.3780
@<TRIPOS>BOND
    1     1     2    1
    2     1     3    1
    3     1     4    1
    4     4     5    1
    5     4     6    1
    6     4     7    1
    7     7     8    1
    8     7     9    1
    9     7    10    1
   10    10    11    1
   11    10    12    1
   12    10    13    1
   13    13    14    1
   14    13    15    1
   15    15    16    1
   16    15    17    1
   17    15    18    1
   18    18    19    1
   19    18    20    1
   20     1    21    1
   21    18    21    1
   22    21    22    1
   23    21    23    1
   24    13    24    1
   25    24    25    1
@<TRIPOS>SUBSTRUCTURE
       1 MOL1            1 RESIDUE      1      MOL     
@<SCITEGIC>MOL_PROPERTY
VM2 Rank
SciTegic.value.IntegerValue
119

@<SCITEGIC>MOL_PROPERTY
Conf_Id
SciTegic.value.IntegerValue
211

@<SCITEGIC>MOL_PROPERTY
Probability
SciTegic.value.DoubleValue
0.00

@<SCITEGIC>MOL_PROPERTY
Sum Probability
SciTegic.value.DoubleValue
100.00

@<SCITEGIC>MOL_PROPERTY
Delta G
SciTegic.value.DoubleValue
5.551

@<SCITEGIC>MOL_PROPERTY
G
SciTegic.value.DoubleValue
67.626

@<SCITEGIC>MOL_PROPERTY
E
SciTegic.value.DoubleValue
34.901

@<SCITEGIC>MOL_PROPERTY
-TS
SciTegic.value.DoubleValue
32.725

@<SCITEGIC>MOL_PROPERTY
U+W
SciTegic.value.DoubleValue
14.333

@<SCITEGIC>MOL_PROPERTY
U
SciTegic.value.DoubleValue
16.213

@<SCITEGIC>MOL_PROPERTY
W
SciTegic.value.DoubleValue
-1.880

@<SCITEGIC>MOL_PROPERTY
W(PB)
SciTegic.value.DoubleValue
-3.985

@<SCITEGIC>MOL_PROPERTY
W(SA)
SciTegic.value.DoubleValue
2.105

@<SCITEGIC>MOL_PROPERTY
Valence
SciTegic.value.DoubleValue
19.752

@<SCITEGIC>MOL_PROPERTY
Coulomb
SciTegic.value.DoubleValue
-6.007

@<SCITEGIC>MOL_PROPERTY
VdW
SciTegic.value.DoubleValue
2.468

@<SCITEGIC>MOL_PROPERTY
VdW6
SciTegic.value.DoubleValue
-13.673

@<SCITEGIC>MOL_PROPERTY
VdW12
SciTegic.value.DoubleValue
16.142

@<SCITEGIC>MOL_PROPERTY
Bond
SciTegic.value.DoubleValue
0.503

@<SCITEGIC>MOL_PROPERTY
Angle
SciTegic.value.DoubleValue
8.543

@<SCITEGIC>MOL_PROPERTY
Pdih
SciTegic.value.DoubleValue
10.706

@<SCITEGIC>MOL_PROPERTY
Idih
SciTegic.value.DoubleValue
0.000

@<SCITEGIC>MOL_PROPERTY
Tether
SciTegic.value.DoubleValue
0.000

@<TRIPOS>MOLECULE
guest-s17_vm2.mol2 : vm2 ligand conformer 120
          25          25           1
SMALL
USER_CHARGES
 
@<TRIPOS>ATOM
       1    C1      19.493725   18.821127   21.291042 C.3        1 MOL1        -0.1684
       2    H1      18.858658   18.261403   21.984151 H          1 MOL1         0.0833
       3    H2      19.002063   18.677616   20.319048 H          1 MOL1         0.0833
       4    C2      20.884745   18.141277   21.217372 C.3        1 MOL1        -0.1684
       5    H3      21.497680   18.640223   20.454626 H          1 MOL1         0.0833
       6    H4      20.723134   17.121554   20.841910 H          1 MOL1         0.0833
       7    C3      21.701154   18.027914   22.537225 C.3        1 MOL1        -0.1684
       8    H5      22.409598   18.857609   22.635150 H          1 MOL1         0.0833
       9    H6      22.346582   17.144456   22.438500 H          1 MOL1         0.0833
      10    C4      20.890229   17.874206   23.852446 C.3        1 MOL1        -0.1760
      11    H7      20.159980   17.062107   23.739094 H          1 MOL1         0.0833
      12    H8      21.594511   17.513705   24.613350 H          1 MOL1         0.0833
      13    C5      20.193335   19.130023   24.458792 C.3        1 MOL1         0.1219
      14    H9      20.408000   19.091702   25.536523 H          1 MOL1         0.0790
      15    C6      20.650561   20.537848   23.990084 C.3        1 MOL1        -0.1760
      16    H10     20.040245   21.266808   24.539797 H          1 MOL1         0.0833
      17    H11     21.674699   20.701230   24.349502 H          1 MOL1         0.0833
      18    C7      20.600702   20.927510   22.479788 C.3        1 MOL1        -0.1684
      19    H12     21.564973   20.723167   22.001783 H          1 MOL1         0.0833
      20    H13     20.521759   22.022370   22.436496 H          1 MOL1         0.0833
      21    C8      19.465532   20.346724   21.597165 C.3        1 MOL1        -0.1684
      22    H14     19.523437   20.868193   20.631780 H          1 MOL1         0.0833
      23    H15     18.488035   20.626040   22.012541 H          1 MOL1         0.0833
      24    O1      18.784017   19.036373   24.336086 O.3        1 MOL1        -0.5508
      25    H16     18.607368   19.286883   23.406970 H          1 MOL1         0.3780
@<TRIPOS>BOND
    1     1     2    1
    2     1     3    1
    3     1     4    1
    4     4     5    1
    5     4     6    1
    6     4     7    1
    7     7     8    1
    8     7     9    1
    9     7    10    1
   10    10    11    1
   11    10    12    1
   12    10    13    1
   13    13    14    1
   14    13    15    1
   15    15    16    1
   16    15    17    1
   17    15    18    1
   18    18    19    1
   19    18    20    1
   20     1    21    1
   21    18    21    1
   22    21    22    1
   23    21    23    1
   24    13    24    1
   25    24    25    1
@<TRIPOS>SUBSTRUCTURE
       1 MOL1            1 RESIDUE      1      MOL     
@<SCITEGIC>MOL_PROPERTY
VM2 Rank
SciTegic.value.IntegerValue
120

@<SCITEGIC>MOL_PROPERTY
Conf_Id
SciTegic.value.IntegerValue
999

@<SCITEGIC>MOL_PROPERTY
Probability
SciTegic.value.DoubleValue
0.00

@<SCITEGIC>MOL_PROPERTY
Sum Probability
SciTegic.value.DoubleValue
100.00

@<SCITEGIC>MOL_PROPERTY
Delta G
SciTegic.value.DoubleValue
7.422

@<SCITEGIC>MOL_PROPERTY
G
SciTegic.value.DoubleValue
69.498

@<SCITEGIC>MOL_PROPERTY
E
SciTegic.value.DoubleValue
36.284

@<SCITEGIC>MOL_PROPERTY
-TS
SciTegic.value.DoubleValue
33.214

@<SCITEGIC>MOL_PROPERTY
U+W
SciTegic.value.DoubleValue
15.716

@<SCITEGIC>MOL_PROPERTY
U
SciTegic.value.DoubleValue
16.593

@<SCITEGIC>MOL_PROPERTY
W
SciTegic.value.DoubleValue
-0.877

@<SCITEGIC>MOL_PROPERTY
W(PB)
SciTegic.value.DoubleValue
-2.981

@<SCITEGIC>MOL_PROPERTY
W(SA)
SciTegic.value.DoubleValue
2.104

@<SCITEGIC>MOL_PROPERTY
Valence
SciTegic.value.DoubleValue
22.340

@<SCITEGIC>MOL_PROPERTY
Coulomb
SciTegic.value.DoubleValue
-9.762

@<SCITEGIC>MOL_PROPERTY
VdW
SciTegic.value.DoubleValue
4.015

@<SCITEGIC>MOL_PROPERTY
VdW6
SciTegic.value.DoubleValue
-15.368

@<SCITEGIC>MOL_PROPERTY
VdW12
SciTegic.value.DoubleValue
19.383

@<SCITEGIC>MOL_PROPERTY
Bond
SciTegic.value.DoubleValue
0.782

@<SCITEGIC>MOL_PROPERTY
Angle
SciTegic.value.DoubleValue
10.779

@<SCITEGIC>MOL_PROPERTY
Pdih
SciTegic.value.DoubleValue
10.779

@<SCITEGIC>MOL_PROPERTY
Idih
SciTegic.value.DoubleValue
0.000

@<SCITEGIC>MOL_PROPERTY
Tether
SciTegic.value.DoubleValue
0.000

@<TRIPOS>MOLECULE
guest-s17_vm2.mol2 : vm2 ligand conformer 121
          25          25           1
SMALL
USER_CHARGES
 
@<TRIPOS>ATOM
       1    C1      19.466171   18.962352   21.277277 C.3        1 MOL1        -0.1684
       2    H1      19.018556   18.745283   20.297674 H          1 MOL1         0.0833
       3    H2      18.608841   18.958065   21.956958 H          1 MOL1         0.0833
       4    C2      20.452825   17.801980   21.596658 C.3        1 MOL1        -0.1684
       5    H3      19.900671   16.943400   22.001651 H          1 MOL1         0.0833
       6    H4      20.857456   17.452339   20.636826 H          1 MOL1         0.0833
       7    C3      21.673289   18.119305   22.499277 C.3        1 MOL1        -0.1684
       8    H5      22.266307   18.913155   22.032164 H          1 MOL1         0.0833
       9    H6      22.341608   17.248109   22.464766 H          1 MOL1         0.0833
      10    C4      21.428136   18.440798   24.006547 C.3        1 MOL1        -0.1760
      11    H7      21.446861   17.489365   24.554705 H          1 MOL1         0.0833
      12    H8      22.296788   18.997649   24.380838 H          1 MOL1         0.0833
      13    C5      20.144441   19.189341   24.456575 C.3        1 MOL1         0.1219
      14    H9      20.262549   19.358329   25.536643 H          1 MOL1         0.0790
      15    C6      19.841666   20.592408   23.848194 C.3        1 MOL1        -0.1760
      16    H10     18.758357   20.715331   23.718009 H          1 MOL1         0.0833
      17    H11     20.117102   21.327990   24.615007 H          1 MOL1         0.0833
      18    C7      20.570836   21.018342   22.545148 C.3        1 MOL1        -0.1684
      19    H12     21.649760   20.867824   22.659790 H          1 MOL1         0.0833
      20    H13     20.468703   22.107725   22.446983 H          1 MOL1         0.0833
      21    C8      20.056345   20.394296   21.215767 C.3        1 MOL1        -0.1684
      22    H14     19.264607   21.050465   20.829090 H          1 MOL1         0.0833
      23    H15     20.857892   20.429486   20.465631 H          1 MOL1         0.0833
      24    O1      19.030291   18.324179   24.314558 O.3        1 MOL1        -0.5508
      25    H16     19.079083   18.021435   23.385482 H          1 MOL1         0.3780
@<TRIPOS>BOND
    1     1     2    1
    2     1     3    1
    3     1     4    1
    4     4     5    1
    5     4     6    1
    6     4     7    1
    7     7     8    1
    8     7     9    1
    9     7    10    1
   10    10    11    1
   11    10    12    1
   12    10    13    1
   13    13    14    1
   14    13    15    1
   15    15    16    1
   16    15    17    1
   17    15    18    1
   18    18    19    1
   19    18    20    1
   20     1    21    1
   21    18    21    1
   22    21    22    1
   23    21    23    1
   24    13    24    1
   25    24    25    1
@<TRIPOS>SUBSTRUCTURE
       1 MOL1            1 RESIDUE      1      MOL     
@<SCITEGIC>MOL_PROPERTY
VM2 Rank
SciTegic.value.IntegerValue
121

@<SCITEGIC>MOL_PROPERTY
Conf_Id
SciTegic.value.IntegerValue
1828

@<SCITEGIC>MOL_PROPERTY
Probability
SciTegic.value.DoubleValue
0.00

@<SCITEGIC>MOL_PROPERTY
Sum Probability
SciTegic.value.DoubleValue
100.00

@<SCITEGIC>MOL_PROPERTY
Delta G
SciTegic.value.DoubleValue
7.438

@<SCITEGIC>MOL_PROPERTY
G
SciTegic.value.DoubleValue
69.513

@<SCITEGIC>MOL_PROPERTY
E
SciTegic.value.DoubleValue
36.299

@<SCITEGIC>MOL_PROPERTY
-TS
SciTegic.value.DoubleValue
33.214

@<SCITEGIC>MOL_PROPERTY
U+W
SciTegic.value.DoubleValue
15.732

@<SCITEGIC>MOL_PROPERTY
U
SciTegic.value.DoubleValue
16.593

@<SCITEGIC>MOL_PROPERTY
W
SciTegic.value.DoubleValue
-0.862

@<SCITEGIC>MOL_PROPERTY
W(PB)
SciTegic.value.DoubleValue
-2.960

@<SCITEGIC>MOL_PROPERTY
W(SA)
SciTegic.value.DoubleValue
2.098

@<SCITEGIC>MOL_PROPERTY
Valence
SciTegic.value.DoubleValue
22.340

@<SCITEGIC>MOL_PROPERTY
Coulomb
SciTegic.value.DoubleValue
-9.762

@<SCITEGIC>MOL_PROPERTY
VdW
SciTegic.value.DoubleValue
4.015

@<SCITEGIC>MOL_PROPERTY
VdW6
SciTegic.value.DoubleValue
-15.368

@<SCITEGIC>MOL_PROPERTY
VdW12
SciTegic.value.DoubleValue
19.383

@<SCITEGIC>MOL_PROPERTY
Bond
SciTegic.value.DoubleValue
0.782

@<SCITEGIC>MOL_PROPERTY
Angle
SciTegic.value.DoubleValue
10.779

@<SCITEGIC>MOL_PROPERTY
Pdih
SciTegic.value.DoubleValue
10.779

@<SCITEGIC>MOL_PROPERTY
Idih
SciTegic.value.DoubleValue
0.000

@<SCITEGIC>MOL_PROPERTY
Tether
SciTegic.value.DoubleValue
0.000

@<TRIPOS>MOLECULE
guest-s17_vm2.mol2 : vm2 ligand conformer 122
          25          25           1
SMALL
USER_CHARGES
 
@<TRIPOS>ATOM
       1    C1      19.485759   18.820123   21.304978 C.3        1 MOL1        -0.1684
       2    H1      18.966461   18.655788   20.351267 H          1 MOL1         0.0833
       3    H2      18.867396   18.288383   22.034912 H          1 MOL1         0.0833
       4    C2      20.874167   18.135441   21.216091 C.3        1 MOL1        -0.1684
       5    H3      20.703699   17.113382   20.851394 H          1 MOL1         0.0833
       6    H4      21.478710   18.626863   20.442014 H          1 MOL1         0.0833
       7    C3      21.704156   18.029085   22.528341 C.3        1 MOL1        -0.1684
       8    H5      22.410607   18.861170   22.618109 H          1 MOL1         0.0833
       9    H6      22.350342   17.146475   22.427872 H          1 MOL1         0.0833
      10    C4      20.901426   17.879179   23.849288 C.3        1 MOL1        -0.1760
      11    H7      20.169836   17.067825   23.740124 H          1 MOL1         0.0833
      12    H8      21.608785   17.520938   24.608227 H          1 MOL1         0.0833
      13    C5      20.202575   19.136256   24.452854 C.3        1 MOL1         0.1219
      14    H9      20.453029   19.114108   25.523386 H          1 MOL1         0.0790
      15    C6      20.644499   20.547919   23.971773 C.3        1 MOL1        -0.1760
      16    H10     20.031625   21.278895   24.514918 H          1 MOL1         0.0833
      17    H11     21.667129   20.720809   24.331110 H          1 MOL1         0.0833
      18    C7      20.601728   20.931777   22.460558 C.3        1 MOL1        -0.1684
      19    H12     21.564571   20.720244   21.983414 H          1 MOL1         0.0833
      20    H13     20.525788   22.026450   22.410967 H          1 MOL1         0.0833
      21    C8      19.463606   20.348362   21.587018 C.3        1 MOL1        -0.1684
      22    H14     19.507914   20.861869   20.617040 H          1 MOL1         0.0833
      23    H15     18.491747   20.620697   22.019737 H          1 MOL1         0.0833
      24    O1      18.786085   19.014857   24.389100 O.3        1 MOL1        -0.5508
      25    H16     18.420735   19.884271   24.647906 H          1 MOL1         0.3780
@<TRIPOS>BOND
    1     1     2    1
    2     1     3    1
    3     1     4    1
    4     4     5    1
    5     4     6    1
    6     4     7    1
    7     7     8    1
    8     7     9    1
    9     7    10    1
   10    10    11    1
   11    10    12    1
   12    10    13    1
   13    13    14    1
   14    13    15    1
   15    15    16    1
   16    15    17    1
   17    15    18    1
   18    18    19    1
   19    18    20    1
   20     1    21    1
   21    18    21    1
   22    21    22    1
   23    21    23    1
   24    13    24    1
   25    24    25    1
@<TRIPOS>SUBSTRUCTURE
       1 MOL1            1 RESIDUE      1      MOL     
@<SCITEGIC>MOL_PROPERTY
VM2 Rank
SciTegic.value.IntegerValue
122

@<SCITEGIC>MOL_PROPERTY
Conf_Id
SciTegic.value.IntegerValue
307

@<SCITEGIC>MOL_PROPERTY
Probability
SciTegic.value.DoubleValue
0.00

@<SCITEGIC>MOL_PROPERTY
Sum Probability
SciTegic.value.DoubleValue
100.00

@<SCITEGIC>MOL_PROPERTY
Delta G
SciTegic.value.DoubleValue
8.876

@<SCITEGIC>MOL_PROPERTY
G
SciTegic.value.DoubleValue
70.951

@<SCITEGIC>MOL_PROPERTY
E
SciTegic.value.DoubleValue
38.323

@<SCITEGIC>MOL_PROPERTY
-TS
SciTegic.value.DoubleValue
32.628

@<SCITEGIC>MOL_PROPERTY
U+W
SciTegic.value.DoubleValue
17.756

@<SCITEGIC>MOL_PROPERTY
U
SciTegic.value.DoubleValue
19.520

@<SCITEGIC>MOL_PROPERTY
W
SciTegic.value.DoubleValue
-1.765

@<SCITEGIC>MOL_PROPERTY
W(PB)
SciTegic.value.DoubleValue
-3.862

@<SCITEGIC>MOL_PROPERTY
W(SA)
SciTegic.value.DoubleValue
2.098

@<SCITEGIC>MOL_PROPERTY
Valence
SciTegic.value.DoubleValue
21.920

@<SCITEGIC>MOL_PROPERTY
Coulomb
SciTegic.value.DoubleValue
-6.404

@<SCITEGIC>MOL_PROPERTY
VdW
SciTegic.value.DoubleValue
4.004

@<SCITEGIC>MOL_PROPERTY
VdW6
SciTegic.value.DoubleValue
-14.821

@<SCITEGIC>MOL_PROPERTY
VdW12
SciTegic.value.DoubleValue
18.825

@<SCITEGIC>MOL_PROPERTY
Bond
SciTegic.value.DoubleValue
0.770

@<SCITEGIC>MOL_PROPERTY
Angle
SciTegic.value.DoubleValue
10.565

@<SCITEGIC>MOL_PROPERTY
Pdih
SciTegic.value.DoubleValue
10.584

@<SCITEGIC>MOL_PROPERTY
Idih
SciTegic.value.DoubleValue
0.000

@<SCITEGIC>MOL_PROPERTY
Tether
SciTegic.value.DoubleValue
0.000

@<TRIPOS>MOLECULE
guest-s17_vm2.mol2 : vm2 ligand conformer 123
          25          25           1
SMALL
USER_CHARGES
 
@<TRIPOS>ATOM
       1    C1      19.483982   18.820073   21.305581 C.3        1 MOL1        -0.1684
       2    H1      18.866753   18.293521   22.039844 H          1 MOL1         0.0833
       3    H2      18.961004   18.654044   20.354176 H          1 MOL1         0.0833
       4    C2      20.871053   18.133156   21.214204 C.3        1 MOL1        -0.1684
       5    H3      20.698419   17.110416   20.852423 H          1 MOL1         0.0833
       6    H4      21.474055   18.622072   20.437329 H          1 MOL1         0.0833
       7    C3      21.704212   18.029629   22.524474 C.3        1 MOL1        -0.1684
       8    H5      22.410653   18.861789   22.612835 H          1 MOL1         0.0833
       9    H6      22.350854   17.147359   22.423536 H          1 MOL1         0.0833
      10    C4      20.903491   17.880064   23.845928 C.3        1 MOL1        -0.1760
      11    H7      20.177054   17.064610   23.735546 H          1 MOL1         0.0833
      12    H8      21.614409   17.523179   24.602482 H          1 MOL1         0.0833
      13    C5      20.205921   19.137168   24.453269 C.3        1 MOL1         0.1219
      14    H9      20.467884   19.117571   25.521114 H          1 MOL1         0.0790
      15    C6      20.636302   20.551616   23.969454 C.3        1 MOL1        -0.1760
      16    H10     19.997835   21.270133   24.500032 H          1 MOL1         0.0833
      17    H11     21.649882   20.744263   24.343391 H          1 MOL1         0.0833
      18    C7      20.604911   20.930431   22.456595 C.3        1 MOL1        -0.1684
      19    H12     21.568771   20.715750   21.983536 H          1 MOL1         0.0833
      20    H13     20.531328   22.025063   22.404344 H          1 MOL1         0.0833
      21    C8      19.465808   20.348660   21.583737 C.3        1 MOL1        -0.1684
      22    H14     19.508358   20.861388   20.613340 H          1 MOL1         0.0833
      23    H15     18.496031   20.622081   22.021157 H          1 MOL1         0.0833
      24    O1      18.788319   19.012202   24.406757 O.3        1 MOL1        -0.5508
      25    H16     18.568889   18.141061   24.794051 H          1 MOL1         0.3780
@<TRIPOS>BOND
    1     1     2    1
    2     1     3    1
    3     1     4    1
    4     4     5    1
    5     4     6    1
    6     4     7    1
    7     7     8    1
    8     7     9    1
    9     7    10    1
   10    10    11    1
   11    10    12    1
   12    10    13    1
   13    13    14    1
   14    13    15    1
   15    15    16    1
   16    15    17    1
   17    15    18    1
   18    18    19    1
   19    18    20    1
   20     1    21    1
   21    18    21    1
   22    21    22    1
   23    21    23    1
   24    13    24    1
   25    24    25    1
@<TRIPOS>SUBSTRUCTURE
       1 MOL1            1 RESIDUE      1      MOL     
@<SCITEGIC>MOL_PROPERTY
VM2 Rank
SciTegic.value.IntegerValue
123

@<SCITEGIC>MOL_PROPERTY
Conf_Id
SciTegic.value.IntegerValue
1688

@<SCITEGIC>MOL_PROPERTY
Probability
SciTegic.value.DoubleValue
0.00

@<SCITEGIC>MOL_PROPERTY
Sum Probability
SciTegic.value.DoubleValue
100.00

@<SCITEGIC>MOL_PROPERTY
Delta G
SciTegic.value.DoubleValue
9.432

@<SCITEGIC>MOL_PROPERTY
G
SciTegic.value.DoubleValue
71.508

@<SCITEGIC>MOL_PROPERTY
E
SciTegic.value.DoubleValue
38.704

@<SCITEGIC>MOL_PROPERTY
-TS
SciTegic.value.DoubleValue
32.803

@<SCITEGIC>MOL_PROPERTY
U+W
SciTegic.value.DoubleValue
18.137

@<SCITEGIC>MOL_PROPERTY
U
SciTegic.value.DoubleValue
20.127

@<SCITEGIC>MOL_PROPERTY
W
SciTegic.value.DoubleValue
-1.991

@<SCITEGIC>MOL_PROPERTY
W(PB)
SciTegic.value.DoubleValue
-4.096

@<SCITEGIC>MOL_PROPERTY
W(SA)
SciTegic.value.DoubleValue
2.106

@<SCITEGIC>MOL_PROPERTY
Valence
SciTegic.value.DoubleValue
21.807

@<SCITEGIC>MOL_PROPERTY
Coulomb
SciTegic.value.DoubleValue
-5.640

@<SCITEGIC>MOL_PROPERTY
VdW
SciTegic.value.DoubleValue
3.961

@<SCITEGIC>MOL_PROPERTY
VdW6
SciTegic.value.DoubleValue
-14.712

@<SCITEGIC>MOL_PROPERTY
VdW12
SciTegic.value.DoubleValue
18.672

@<SCITEGIC>MOL_PROPERTY
Bond
SciTegic.value.DoubleValue
0.774

@<SCITEGIC>MOL_PROPERTY
Angle
SciTegic.value.DoubleValue
10.671

@<SCITEGIC>MOL_PROPERTY
Pdih
SciTegic.value.DoubleValue
10.362

@<SCITEGIC>MOL_PROPERTY
Idih
SciTegic.value.DoubleValue
0.000

@<SCITEGIC>MOL_PROPERTY
Tether
SciTegic.value.DoubleValue
0.000

