VeraChem MOL file


 25 25  0  0  0  0  0  0  0  0999 V2000     
   21.2649   19.5700   21.1384 C   0  0  0  0  0  0  0  0  0  0  0  0
   22.0469   19.7183   21.8916 H   0  0  0  0  0  0  0  0  0  0  0  0
   21.7746   19.7415   20.1803 H   0  0  0  0  0  0  0  0  0  0  0  0
   20.7595   18.1038   21.1583 C   0  0  0  0  0  0  0  0  0  0  0  0
   19.7152   18.0409   20.8265 H   0  0  0  0  0  0  0  0  0  0  0  0
   21.3327   17.5468   20.4045 H   0  0  0  0  0  0  0  0  0  0  0  0
   20.9530   17.3662   22.5094 C   0  0  0  0  0  0  0  0  0  0  0  0
   22.0134   17.4005   22.7947 H   0  0  0  0  0  0  0  0  0  0  0  0
   20.7266   16.3039   22.3451 H   0  0  0  0  0  0  0  0  0  0  0  0
   20.0858   17.8548   23.7003 C   0  0  0  0  0  0  0  0  0  0  0  0
   19.0203   17.7990   23.4478 H   0  0  0  0  0  0  0  0  0  0  0  0
   20.2246   17.1310   24.5147 H   0  0  0  0  0  0  0  0  0  0  0  0
   20.4544   19.2646   24.2301 C   0  0  0  0  0  0  0  0  0  0  0  0
   21.4703   19.5138   23.9017 H   0  0  0  0  0  0  0  0  0  0  0  0
   19.4858   20.3914   23.7946 C   0  0  0  0  0  0  0  0  0  0  0  0
   18.5769   20.3182   24.4070 H   0  0  0  0  0  0  0  0  0  0  0  0
   19.9398   21.3598   24.0411 H   0  0  0  0  0  0  0  0  0  0  0  0
   19.0436   20.4095   22.3086 C   0  0  0  0  0  0  0  0  0  0  0  0
   18.3091   21.2185   22.1958 H   0  0  0  0  0  0  0  0  0  0  0  0
   18.4890   19.4967   22.0628 H   0  0  0  0  0  0  0  0  0  0  0  0
   20.1645   20.6553   21.2676 C   0  0  0  0  0  0  0  0  0  0  0  0
   20.6411   21.6244   21.4682 H   0  0  0  0  0  0  0  0  0  0  0  0
   19.6822   20.7604   20.2861 H   0  0  0  0  0  0  0  0  0  0  0  0
   20.4524   19.2274   25.6528 O   0  0  0  0  0  0  0  0  0  0  0  0
   20.7316   20.1156   25.9588 H   0  0  0  0  0  0  0  0  0  0  0  0
  1  2  1  0  0  0  0
  1  3  1  0  0  0  0
  1  4  1  0  0  0  0
  4  5  1  0  0  0  0
  4  6  1  0  0  0  0
  4  7  1  0  0  0  0
  7  8  1  0  0  0  0
  7  9  1  0  0  0  0
  7 10  1  0  0  0  0
 10 11  1  0  0  0  0
 10 12  1  0  0  0  0
 10 13  1  0  0  0  0
 13 14  1  0  0  0  0
 13 15  1  0  0  0  0
 15 16  1  0  0  0  0
 15 17  1  0  0  0  0
 15 18  1  0  0  0  0
 18 19  1  0  0  0  0
 18 20  1  0  0  0  0
  1 21  1  0  0  0  0
 18 21  1  0  0  0  0
 21 22  1  0  0  0  0
 21 23  1  0  0  0  0
 13 24  1  0  0  0  0
 24 25  1  0  0  0  0
M  END
> <VM2 Rank>
1

> <Conf_Id>
1482

> <Probability>
4.69

> <Sum Probability>
4.69

> <Delta G>
0.000

> <G>
62.075

> <E>
29.291

> <-TS>
32.785

> <U+W>
8.723

> <U>
10.905

> <W>
-2.182

> <W(PB)>
-4.296

> <W(SA)>
2.114

> <Valence>
16.378

> <Coulomb>
-8.448

> <VdW>
2.976

> <VdW6>
-12.570

> <VdW12>
15.546

> <Bond>
0.439

> <Angle>
5.049

> <Pdih>
10.889

> <Idih>
0.000

> <Tether>
0.000

$$$$
VeraChem MOL file


 25 25  0  0  0  0  0  0  0  0999 V2000     
   21.2656   19.5696   21.1386 C   0  0  0  0  0  0  0  0  0  0  0  0
   22.0494   19.7177   21.8899 H   0  0  0  0  0  0  0  0  0  0  0  0
   21.7735   19.7405   20.1795 H   0  0  0  0  0  0  0  0  0  0  0  0
   20.7600   18.1034   21.1596 C   0  0  0  0  0  0  0  0  0  0  0  0
   19.7157   18.0406   20.8279 H   0  0  0  0  0  0  0  0  0  0  0  0
   21.3330   17.5460   20.4059 H   0  0  0  0  0  0  0  0  0  0  0  0
   20.9535   17.3659   22.5109 C   0  0  0  0  0  0  0  0  0  0  0  0
   22.0137   17.4008   22.7967 H   0  0  0  0  0  0  0  0  0  0  0  0
   20.7279   16.3034   22.3460 H   0  0  0  0  0  0  0  0  0  0  0  0
   20.0833   17.8542   23.6993 C   0  0  0  0  0  0  0  0  0  0  0  0
   19.0192   17.8029   23.4395 H   0  0  0  0  0  0  0  0  0  0  0  0
   20.2120   17.1260   24.5111 H   0  0  0  0  0  0  0  0  0  0  0  0
   20.4529   19.2643   24.2284 C   0  0  0  0  0  0  0  0  0  0  0  0
   21.4658   19.5191   23.8957 H   0  0  0  0  0  0  0  0  0  0  0  0
   19.4815   20.3888   23.7951 C   0  0  0  0  0  0  0  0  0  0  0  0
   18.5734   20.3112   24.4078 H   0  0  0  0  0  0  0  0  0  0  0  0
   19.9343   21.3556   24.0498 H   0  0  0  0  0  0  0  0  0  0  0  0
   19.0429   20.4114   22.3078 C   0  0  0  0  0  0  0  0  0  0  0  0
   18.3105   21.2223   22.1955 H   0  0  0  0  0  0  0  0  0  0  0  0
   18.4869   19.5004   22.0587 H   0  0  0  0  0  0  0  0  0  0  0  0
   20.1665   20.6565   21.2693 C   0  0  0  0  0  0  0  0  0  0  0  0
   20.6447   21.6242   21.4730 H   0  0  0  0  0  0  0  0  0  0  0  0
   19.6860   20.7650   20.2874 H   0  0  0  0  0  0  0  0  0  0  0  0
   20.4578   19.2289   25.6509 O   0  0  0  0  0  0  0  0  0  0  0  0
   21.1308   18.5667   25.9134 H   0  0  0  0  0  0  0  0  0  0  0  0
  1  2  1  0  0  0  0
  1  3  1  0  0  0  0
  1  4  1  0  0  0  0
  4  5  1  0  0  0  0
  4  6  1  0  0  0  0
  4  7  1  0  0  0  0
  7  8  1  0  0  0  0
  7  9  1  0  0  0  0
  7 10  1  0  0  0  0
 10 11  1  0  0  0  0
 10 12  1  0  0  0  0
 10 13  1  0  0  0  0
 13 14  1  0  0  0  0
 13 15  1  0  0  0  0
 15 16  1  0  0  0  0
 15 17  1  0  0  0  0
 15 18  1  0  0  0  0
 18 19  1  0  0  0  0
 18 20  1  0  0  0  0
  1 21  1  0  0  0  0
 18 21  1  0  0  0  0
 21 22  1  0  0  0  0
 21 23  1  0  0  0  0
 13 24  1  0  0  0  0
 24 25  1  0  0  0  0
M  END
> <VM2 Rank>
2

> <Conf_Id>
735

> <Probability>
4.42

> <Sum Probability>
9.11

> <Delta G>
0.036

> <G>
62.111

> <E>
29.304

> <-TS>
32.807

> <U+W>
8.736

> <U>
10.865

> <W>
-2.129

> <W(PB)>
-4.247

> <W(SA)>
2.118

> <Valence>
16.387

> <Coulomb>
-8.479

> <VdW>
2.957

> <VdW6>
-12.577

> <VdW12>
15.534

> <Bond>
0.441

> <Angle>
5.030

> <Pdih>
10.916

> <Idih>
0.000

> <Tether>
0.000

$$$$
VeraChem MOL file


 25 25  0  0  0  0  0  0  0  0999 V2000     
   21.2426   19.6238   21.1382 C   0  0  0  0  0  0  0  0  0  0  0  0
   21.8986   20.0759   21.8906 H   0  0  0  0  0  0  0  0  0  0  0  0
   21.7261   19.8585   20.1799 H   0  0  0  0  0  0  0  0  0  0  0  0
   21.2325   18.0789   21.2750 C   0  0  0  0  0  0  0  0  0  0  0  0
   20.9681   17.6586   20.2950 H   0  0  0  0  0  0  0  0  0  0  0  0
   22.2546   17.7322   21.4794 H   0  0  0  0  0  0  0  0  0  0  0  0
   20.2644   17.4646   22.3170 C   0  0  0  0  0  0  0  0  0  0  0  0
   20.3179   16.3727   22.2097 H   0  0  0  0  0  0  0  0  0  0  0  0
   19.2271   17.7162   22.0678 H   0  0  0  0  0  0  0  0  0  0  0  0
   20.5610   17.7975   23.8020 C   0  0  0  0  0  0  0  0  0  0  0  0
   19.8656   17.2092   24.4159 H   0  0  0  0  0  0  0  0  0  0  0  0
   21.5665   17.4355   24.0524 H   0  0  0  0  0  0  0  0  0  0  0  0
   20.4475   19.2813   24.2301 C   0  0  0  0  0  0  0  0  0  0  0  0
   21.3424   19.8222   23.9008 H   0  0  0  0  0  0  0  0  0  0  0  0
   19.1906   20.0142   23.6941 C   0  0  0  0  0  0  0  0  0  0  0  0
   18.3986   19.2986   23.4436 H   0  0  0  0  0  0  0  0  0  0  0  0
   18.7750   20.6279   24.5047 H   0  0  0  0  0  0  0  0  0  0  0  0
   19.4602   20.9672   22.4991 C   0  0  0  0  0  0  0  0  0  0  0  0
   20.2333   21.6946   22.7824 H   0  0  0  0  0  0  0  0  0  0  0  0
   18.5490   21.5570   22.3301 H   0  0  0  0  0  0  0  0  0  0  0  0
   19.8481   20.3024   21.1520 C   0  0  0  0  0  0  0  0  0  0  0  0
   19.8606   21.0979   20.3943 H   0  0  0  0  0  0  0  0  0  0  0  0
   19.0662   19.6065   20.8221 H   0  0  0  0  0  0  0  0  0  0  0  0
   20.4169   19.3130   25.6526 O   0  0  0  0  0  0  0  0  0  0  0  0
   21.2419   18.8842   25.9623 H   0  0  0  0  0  0  0  0  0  0  0  0
  1  2  1  0  0  0  0
  1  3  1  0  0  0  0
  1  4  1  0  0  0  0
  4  5  1  0  0  0  0
  4  6  1  0  0  0  0
  4  7  1  0  0  0  0
  7  8  1  0  0  0  0
  7  9  1  0  0  0  0
  7 10  1  0  0  0  0
 10 11  1  0  0  0  0
 10 12  1  0  0  0  0
 10 13  1  0  0  0  0
 13 14  1  0  0  0  0
 13 15  1  0  0  0  0
 15 16  1  0  0  0  0
 15 17  1  0  0  0  0
 15 18  1  0  0  0  0
 18 19  1  0  0  0  0
 18 20  1  0  0  0  0
  1 21  1  0  0  0  0
 18 21  1  0  0  0  0
 21 22  1  0  0  0  0
 21 23  1  0  0  0  0
 13 24  1  0  0  0  0
 24 25  1  0  0  0  0
M  END
> <VM2 Rank>
3

> <Conf_Id>
1603

> <Probability>
4.31

> <Sum Probability>
13.43

> <Delta G>
0.051

> <G>
62.126

> <E>
29.342

> <-TS>
32.784

> <U+W>
8.774

> <U>
10.905

> <W>
-2.131

> <W(PB)>
-4.281

> <W(SA)>
2.150

> <Valence>
16.378

> <Coulomb>
-8.448

> <VdW>
2.976

> <VdW6>
-12.570

> <VdW12>
15.546

> <Bond>
0.439

> <Angle>
5.049

> <Pdih>
10.889

> <Idih>
0.000

> <Tether>
0.000

$$$$
VeraChem MOL file


 25 25  0  0  0  0  0  0  0  0999 V2000     
   21.2430   19.6245   21.1386 C   0  0  0  0  0  0  0  0  0  0  0  0
   21.9002   20.0781   21.8890 H   0  0  0  0  0  0  0  0  0  0  0  0
   21.7249   19.8584   20.1793 H   0  0  0  0  0  0  0  0  0  0  0  0
   21.2350   18.0795   21.2768 C   0  0  0  0  0  0  0  0  0  0  0  0
   20.9743   17.6580   20.2963 H   0  0  0  0  0  0  0  0  0  0  0  0
   22.2571   17.7349   21.4844 H   0  0  0  0  0  0  0  0  0  0  0  0
   20.2653   17.4628   22.3162 C   0  0  0  0  0  0  0  0  0  0  0  0
   20.3216   16.3710   22.2094 H   0  0  0  0  0  0  0  0  0  0  0  0
   19.2283   17.7120   22.0636 H   0  0  0  0  0  0  0  0  0  0  0  0
   20.5560   17.7963   23.8025 C   0  0  0  0  0  0  0  0  0  0  0  0
   19.8580   17.2117   24.4166 H   0  0  0  0  0  0  0  0  0  0  0  0
   21.5594   17.4346   24.0612 H   0  0  0  0  0  0  0  0  0  0  0  0
   20.4461   19.2803   24.2284 C   0  0  0  0  0  0  0  0  0  0  0  0
   21.3429   19.8153   23.8949 H   0  0  0  0  0  0  0  0  0  0  0  0
   19.1884   20.0128   23.6930 C   0  0  0  0  0  0  0  0  0  0  0  0
   18.4006   19.2950   23.4350 H   0  0  0  0  0  0  0  0  0  0  0  0
   18.7624   20.6224   24.5010 H   0  0  0  0  0  0  0  0  0  0  0  0
   19.4604   20.9678   22.5005 C   0  0  0  0  0  0  0  0  0  0  0  0
   20.2338   21.6946   22.7845 H   0  0  0  0  0  0  0  0  0  0  0  0
   18.5497   21.5583   22.3308 H   0  0  0  0  0  0  0  0  0  0  0  0
   19.8484   20.3032   21.1533 C   0  0  0  0  0  0  0  0  0  0  0  0
   19.8606   21.0987   20.3957 H   0  0  0  0  0  0  0  0  0  0  0  0
   19.0666   19.6071   20.8233 H   0  0  0  0  0  0  0  0  0  0  0  0
   20.4215   19.3158   25.6507 O   0  0  0  0  0  0  0  0  0  0  0  0
   20.4281   20.2613   25.9085 H   0  0  0  0  0  0  0  0  0  0  0  0
  1  2  1  0  0  0  0
  1  3  1  0  0  0  0
  1  4  1  0  0  0  0
  4  5  1  0  0  0  0
  4  6  1  0  0  0  0
  4  7  1  0  0  0  0
  7  8  1  0  0  0  0
  7  9  1  0  0  0  0
  7 10  1  0  0  0  0
 10 11  1  0  0  0  0
 10 12  1  0  0  0  0
 10 13  1  0  0  0  0
 13 14  1  0  0  0  0
 13 15  1  0  0  0  0
 15 16  1  0  0  0  0
 15 17  1  0  0  0  0
 15 18  1  0  0  0  0
 18 19  1  0  0  0  0
 18 20  1  0  0  0  0
  1 21  1  0  0  0  0
 18 21  1  0  0  0  0
 21 22  1  0  0  0  0
 21 23  1  0  0  0  0
 13 24  1  0  0  0  0
 24 25  1  0  0  0  0
M  END
> <VM2 Rank>
4

> <Conf_Id>
1922

> <Probability>
4.31

> <Sum Probability>
17.73

> <Delta G>
0.051

> <G>
62.126

> <E>
29.319

> <-TS>
32.807

> <U+W>
8.752

> <U>
10.865

> <W>
-2.113

> <W(PB)>
-4.265

> <W(SA)>
2.152

> <Valence>
16.387

> <Coulomb>
-8.479

> <VdW>
2.957

> <VdW6>
-12.577

> <VdW12>
15.534

> <Bond>
0.441

> <Angle>
5.030

> <Pdih>
10.916

> <Idih>
0.000

> <Tether>
0.000

$$$$
VeraChem MOL file


 25 25  0  0  0  0  0  0  0  0999 V2000     
   20.7558   19.2415   20.8006 C   0  0  0  0  0  0  0  0  0  0  0  0
   20.7018   19.0670   19.7173 H   0  0  0  0  0  0  0  0  0  0  0  0
   21.8175   19.4274   21.0082 H   0  0  0  0  0  0  0  0  0  0  0  0
   20.2662   17.9508   21.5066 C   0  0  0  0  0  0  0  0  0  0  0  0
   19.2041   18.0306   21.7639 H   0  0  0  0  0  0  0  0  0  0  0  0
   20.3137   17.1256   20.7828 H   0  0  0  0  0  0  0  0  0  0  0  0
   21.1003   17.5255   22.7406 C   0  0  0  0  0  0  0  0  0  0  0  0
   22.0421   17.0936   22.3754 H   0  0  0  0  0  0  0  0  0  0  0  0
   20.5849   16.7050   23.2571 H   0  0  0  0  0  0  0  0  0  0  0  0
   21.4660   18.6396   23.7585 C   0  0  0  0  0  0  0  0  0  0  0  0
   22.1040   18.1862   24.5284 H   0  0  0  0  0  0  0  0  0  0  0  0
   22.1068   19.3873   23.2791 H   0  0  0  0  0  0  0  0  0  0  0  0
   20.2997   19.3461   24.4924 C   0  0  0  0  0  0  0  0  0  0  0  0
   20.7561   20.0338   25.2188 H   0  0  0  0  0  0  0  0  0  0  0  0
   19.3298   20.1868   23.6260 C   0  0  0  0  0  0  0  0  0  0  0  0
   18.5532   19.5556   23.1804 H   0  0  0  0  0  0  0  0  0  0  0  0
   18.7873   20.8467   24.3157 H   0  0  0  0  0  0  0  0  0  0  0  0
   19.9923   21.0753   22.5396 C   0  0  0  0  0  0  0  0  0  0  0  0
   21.0293   21.3197   22.8029 H   0  0  0  0  0  0  0  0  0  0  0  0
   19.4641   22.0386   22.5337 H   0  0  0  0  0  0  0  0  0  0  0  0
   19.9095   20.5060   21.0994 C   0  0  0  0  0  0  0  0  0  0  0  0
   20.2360   21.2961   20.4094 H   0  0  0  0  0  0  0  0  0  0  0  0
   18.8591   20.3095   20.8449 H   0  0  0  0  0  0  0  0  0  0  0  0
   19.5444   18.3713   25.1963 O   0  0  0  0  0  0  0  0  0  0  0  0
   19.2506   17.7297   24.5186 H   0  0  0  0  0  0  0  0  0  0  0  0
  1  2  1  0  0  0  0
  1  3  1  0  0  0  0
  1  4  1  0  0  0  0
  4  5  1  0  0  0  0
  4  6  1  0  0  0  0
  4  7  1  0  0  0  0
  7  8  1  0  0  0  0
  7  9  1  0  0  0  0
  7 10  1  0  0  0  0
 10 11  1  0  0  0  0
 10 12  1  0  0  0  0
 10 13  1  0  0  0  0
 13 14  1  0  0  0  0
 13 15  1  0  0  0  0
 15 16  1  0  0  0  0
 15 17  1  0  0  0  0
 15 18  1  0  0  0  0
 18 19  1  0  0  0  0
 18 20  1  0  0  0  0
  1 21  1  0  0  0  0
 18 21  1  0  0  0  0
 21 22  1  0  0  0  0
 21 23  1  0  0  0  0
 13 24  1  0  0  0  0
 24 25  1  0  0  0  0
M  END
> <VM2 Rank>
5

> <Conf_Id>
1877

> <Probability>
3.84

> <Sum Probability>
21.57

> <Delta G>
0.120

> <G>
62.195

> <E>
29.408

> <-TS>
32.788

> <U+W>
8.840

> <U>
10.304

> <W>
-1.464

> <W(PB)>
-3.587

> <W(SA)>
2.123

> <Valence>
17.199

> <Coulomb>
-9.376

> <VdW>
2.481

> <VdW6>
-13.059

> <VdW12>
15.540

> <Bond>
0.429

> <Angle>
5.594

> <Pdih>
11.176

> <Idih>
0.000

> <Tether>
0.000

$$$$
VeraChem MOL file


 25 25  0  0  0  0  0  0  0  0999 V2000     
   20.6500   19.4973   20.8001 C   0  0  0  0  0  0  0  0  0  0  0  0
   20.4906   19.5762   19.7160 H   0  0  0  0  0  0  0  0  0  0  0  0
   21.5267   20.1245   21.0071 H   0  0  0  0  0  0  0  0  0  0  0  0
   20.9570   18.0085   21.1066 C   0  0  0  0  0  0  0  0  0  0  0  0
   20.0807   17.3965   20.8527 H   0  0  0  0  0  0  0  0  0  0  0  0
   21.7508   17.6839   20.4201 H   0  0  0  0  0  0  0  0  0  0  0  0
   21.4170   17.6748   22.5495 C   0  0  0  0  0  0  0  0  0  0  0  0
   22.3179   18.2438   22.8126 H   0  0  0  0  0  0  0  0  0  0  0  0
   21.7331   16.6227   22.5493 H   0  0  0  0  0  0  0  0  0  0  0  0
   20.3162   17.8308   23.6324 C   0  0  0  0  0  0  0  0  0  0  0  0
   19.3228   17.7179   23.1848 H   0  0  0  0  0  0  0  0  0  0  0  0
   20.4043   16.9845   24.3262 H   0  0  0  0  0  0  0  0  0  0  0  0
   20.3951   19.1158   24.4931 C   0  0  0  0  0  0  0  0  0  0  0  0
   21.2034   18.9621   25.2224 H   0  0  0  0  0  0  0  0  0  0  0  0
   20.7115   20.4392   23.7539 C   0  0  0  0  0  0  0  0  0  0  0  0
   20.8339   21.2155   24.5206 H   0  0  0  0  0  0  0  0  0  0  0  0
   21.6952   20.3693   23.2774 H   0  0  0  0  0  0  0  0  0  0  0  0
   19.6637   20.9554   22.7310 C   0  0  0  0  0  0  0  0  0  0  0  0
   18.7160   21.1659   23.2440 H   0  0  0  0  0  0  0  0  0  0  0  0
   20.0174   21.9279   22.3622 H   0  0  0  0  0  0  0  0  0  0  0  0
   19.3849   20.0568   21.5003 C   0  0  0  0  0  0  0  0  0  0  0  0
   18.8319   20.6662   20.7723 H   0  0  0  0  0  0  0  0  0  0  0  0
   18.6961   19.2451   21.7596 H   0  0  0  0  0  0  0  0  0  0  0  0
   19.1686   19.2644   25.1931 O   0  0  0  0  0  0  0  0  0  0  0  0
   18.5070   19.5020   24.5125 H   0  0  0  0  0  0  0  0  0  0  0  0
  1  2  1  0  0  0  0
  1  3  1  0  0  0  0
  1  4  1  0  0  0  0
  4  5  1  0  0  0  0
  4  6  1  0  0  0  0
  4  7  1  0  0  0  0
  7  8  1  0  0  0  0
  7  9  1  0  0  0  0
  7 10  1  0  0  0  0
 10 11  1  0  0  0  0
 10 12  1  0  0  0  0
 10 13  1  0  0  0  0
 13 14  1  0  0  0  0
 13 15  1  0  0  0  0
 15 16  1  0  0  0  0
 15 17  1  0  0  0  0
 15 18  1  0  0  0  0
 18 19  1  0  0  0  0
 18 20  1  0  0  0  0
  1 21  1  0  0  0  0
 18 21  1  0  0  0  0
 21 22  1  0  0  0  0
 21 23  1  0  0  0  0
 13 24  1  0  0  0  0
 24 25  1  0  0  0  0
M  END
> <VM2 Rank>
6

> <Conf_Id>
85

> <Probability>
3.69

> <Sum Probability>
25.26

> <Delta G>
0.144

> <G>
62.220

> <E>
29.432

> <-TS>
32.788

> <U+W>
8.864

> <U>
10.304

> <W>
-1.439

> <W(PB)>
-3.553

> <W(SA)>
2.114

> <Valence>
17.199

> <Coulomb>
-9.376

> <VdW>
2.481

> <VdW6>
-13.059

> <VdW12>
15.540

> <Bond>
0.429

> <Angle>
5.594

> <Pdih>
11.176

> <Idih>
0.000

> <Tether>
0.000

$$$$
VeraChem MOL file


 25 25  0  0  0  0  0  0  0  0999 V2000     
   21.2427   19.6234   21.1390 C   0  0  0  0  0  0  0  0  0  0  0  0
   21.7270   19.8592   20.1814 H   0  0  0  0  0  0  0  0  0  0  0  0
   21.8982   20.0740   21.8927 H   0  0  0  0  0  0  0  0  0  0  0  0
   21.2318   18.0785   21.2739 C   0  0  0  0  0  0  0  0  0  0  0  0
   20.9661   17.6592   20.2939 H   0  0  0  0  0  0  0  0  0  0  0  0
   22.2540   17.7312   21.4770 H   0  0  0  0  0  0  0  0  0  0  0  0
   20.2649   17.4640   22.3168 C   0  0  0  0  0  0  0  0  0  0  0  0
   20.3195   16.3720   22.2097 H   0  0  0  0  0  0  0  0  0  0  0  0
   19.2273   17.7145   22.0680 H   0  0  0  0  0  0  0  0  0  0  0  0
   20.5624   17.7975   23.8015 C   0  0  0  0  0  0  0  0  0  0  0  0
   19.8737   17.2021   24.4153 H   0  0  0  0  0  0  0  0  0  0  0  0
   21.5708   17.4429   24.0516 H   0  0  0  0  0  0  0  0  0  0  0  0
   20.4457   19.2809   24.2303 C   0  0  0  0  0  0  0  0  0  0  0  0
   21.3417   19.8211   23.9036 H   0  0  0  0  0  0  0  0  0  0  0  0
   19.1892   20.0151   23.6944 C   0  0  0  0  0  0  0  0  0  0  0  0
   18.3966   19.3011   23.4403 H   0  0  0  0  0  0  0  0  0  0  0  0
   18.7731   20.6324   24.5021 H   0  0  0  0  0  0  0  0  0  0  0  0
   19.4613   20.9676   22.4997 C   0  0  0  0  0  0  0  0  0  0  0  0
   20.2358   21.6934   22.7833 H   0  0  0  0  0  0  0  0  0  0  0  0
   18.5514   21.5593   22.3301 H   0  0  0  0  0  0  0  0  0  0  0  0
   19.8483   20.3022   21.1527 C   0  0  0  0  0  0  0  0  0  0  0  0
   19.8609   21.0974   20.3947 H   0  0  0  0  0  0  0  0  0  0  0  0
   19.0661   19.6064   20.8232 H   0  0  0  0  0  0  0  0  0  0  0  0
   20.4176   19.3139   25.6518 O   0  0  0  0  0  0  0  0  0  0  0  0
   19.6031   18.8432   25.9238 H   0  0  0  0  0  0  0  0  0  0  0  0
  1  2  1  0  0  0  0
  1  3  1  0  0  0  0
  1  4  1  0  0  0  0
  4  5  1  0  0  0  0
  4  6  1  0  0  0  0
  4  7  1  0  0  0  0
  7  8  1  0  0  0  0
  7  9  1  0  0  0  0
  7 10  1  0  0  0  0
 10 11  1  0  0  0  0
 10 12  1  0  0  0  0
 10 13  1  0  0  0  0
 13 14  1  0  0  0  0
 13 15  1  0  0  0  0
 15 16  1  0  0  0  0
 15 17  1  0  0  0  0
 15 18  1  0  0  0  0
 18 19  1  0  0  0  0
 18 20  1  0  0  0  0
  1 21  1  0  0  0  0
 18 21  1  0  0  0  0
 21 22  1  0  0  0  0
 21 23  1  0  0  0  0
 13 24  1  0  0  0  0
 24 25  1  0  0  0  0
M  END
> <VM2 Rank>
7

> <Conf_Id>
1629

> <Probability>
3.60

> <Sum Probability>
28.86

> <Delta G>
0.159

> <G>
62.234

> <E>
29.468

> <-TS>
32.766

> <U+W>
8.900

> <U>
10.935

> <W>
-2.035

> <W(PB)>
-4.170

> <W(SA)>
2.136

> <Valence>
16.758

> <Coulomb>
-8.731

> <VdW>
2.908

> <VdW6>
-12.597

> <VdW12>
15.505

> <Bond>
0.434

> <Angle>
5.070

> <Pdih>
11.254

> <Idih>
0.000

> <Tether>
0.000

$$$$
VeraChem MOL file


 25 25  0  0  0  0  0  0  0  0999 V2000     
   21.2648   19.5703   21.1392 C   0  0  0  0  0  0  0  0  0  0  0  0
   22.0454   19.7192   21.8938 H   0  0  0  0  0  0  0  0  0  0  0  0
   21.7758   19.7416   20.1818 H   0  0  0  0  0  0  0  0  0  0  0  0
   20.7595   18.1041   21.1590 C   0  0  0  0  0  0  0  0  0  0  0  0
   19.7151   18.0410   20.8276 H   0  0  0  0  0  0  0  0  0  0  0  0
   21.3325   17.5474   20.4049 H   0  0  0  0  0  0  0  0  0  0  0  0
   20.9539   17.3667   22.5099 C   0  0  0  0  0  0  0  0  0  0  0  0
   22.0142   17.4029   22.7955 H   0  0  0  0  0  0  0  0  0  0  0  0
   20.7298   16.3039   22.3451 H   0  0  0  0  0  0  0  0  0  0  0  0
   20.0853   17.8531   23.7005 C   0  0  0  0  0  0  0  0  0  0  0  0
   19.0206   17.7958   23.4445 H   0  0  0  0  0  0  0  0  0  0  0  0
   20.2263   17.1265   24.5121 H   0  0  0  0  0  0  0  0  0  0  0  0
   20.4528   19.2635   24.2303 C   0  0  0  0  0  0  0  0  0  0  0  0
   21.4689   19.5141   23.9044 H   0  0  0  0  0  0  0  0  0  0  0  0
   19.4867   20.3924   23.7941 C   0  0  0  0  0  0  0  0  0  0  0  0
   18.5774   20.3288   24.4063 H   0  0  0  0  0  0  0  0  0  0  0  0
   19.9479   21.3576   24.0406 H   0  0  0  0  0  0  0  0  0  0  0  0
   19.0436   20.4104   22.3083 C   0  0  0  0  0  0  0  0  0  0  0  0
   18.3099   21.2203   22.1958 H   0  0  0  0  0  0  0  0  0  0  0  0
   18.4880   19.4981   22.0628 H   0  0  0  0  0  0  0  0  0  0  0  0
   20.1640   20.6552   21.2666 C   0  0  0  0  0  0  0  0  0  0  0  0
   20.6403   21.6246   21.4661 H   0  0  0  0  0  0  0  0  0  0  0  0
   19.6815   20.7589   20.2851 H   0  0  0  0  0  0  0  0  0  0  0  0
   20.4535   19.2273   25.6521 O   0  0  0  0  0  0  0  0  0  0  0  0
   19.5443   18.9850   25.9235 H   0  0  0  0  0  0  0  0  0  0  0  0
  1  2  1  0  0  0  0
  1  3  1  0  0  0  0
  1  4  1  0  0  0  0
  4  5  1  0  0  0  0
  4  6  1  0  0  0  0
  4  7  1  0  0  0  0
  7  8  1  0  0  0  0
  7  9  1  0  0  0  0
  7 10  1  0  0  0  0
 10 11  1  0  0  0  0
 10 12  1  0  0  0  0
 10 13  1  0  0  0  0
 13 14  1  0  0  0  0
 13 15  1  0  0  0  0
 15 16  1  0  0  0  0
 15 17  1  0  0  0  0
 15 18  1  0  0  0  0
 18 19  1  0  0  0  0
 18 20  1  0  0  0  0
  1 21  1  0  0  0  0
 18 21  1  0  0  0  0
 21 22  1  0  0  0  0
 21 23  1  0  0  0  0
 13 24  1  0  0  0  0
 24 25  1  0  0  0  0
M  END
> <VM2 Rank>
8

> <Conf_Id>
1771

> <Probability>
3.51

> <Sum Probability>
32.37

> <Delta G>
0.174

> <G>
62.249

> <E>
29.482

> <-TS>
32.767

> <U+W>
8.915

> <U>
10.935

> <W>
-2.020

> <W(PB)>
-4.135

> <W(SA)>
2.115

> <Valence>
16.757

> <Coulomb>
-8.731

> <VdW>
2.908

> <VdW6>
-12.597

> <VdW12>
15.505

> <Bond>
0.434

> <Angle>
5.070

> <Pdih>
11.254

> <Idih>
0.000

> <Tether>
0.000

$$$$
VeraChem MOL file


 25 25  0  0  0  0  0  0  0  0999 V2000     
   20.0803   19.1697   20.7504 C   0  0  0  0  0  0  0  0  0  0  0  0
   19.0108   18.9953   20.9242 H   0  0  0  0  0  0  0  0  0  0  0  0
   20.1849   19.2407   19.6591 H   0  0  0  0  0  0  0  0  0  0  0  0
   20.9185   17.9471   21.2069 C   0  0  0  0  0  0  0  0  0  0  0  0
   20.6300   17.0925   20.5798 H   0  0  0  0  0  0  0  0  0  0  0  0
   21.9788   18.1293   20.9847 H   0  0  0  0  0  0  0  0  0  0  0  0
   20.7706   17.5143   22.6888 C   0  0  0  0  0  0  0  0  0  0  0  0
   21.3065   16.5618   22.8000 H   0  0  0  0  0  0  0  0  0  0  0  0
   19.7235   17.2821   22.9199 H   0  0  0  0  0  0  0  0  0  0  0  0
   21.3722   18.5110   23.7173 C   0  0  0  0  0  0  0  0  0  0  0  0
   21.9097   17.9337   24.4817 H   0  0  0  0  0  0  0  0  0  0  0  0
   22.1513   19.1196   23.2465 H   0  0  0  0  0  0  0  0  0  0  0  0
   20.3595   19.4244   24.4523 C   0  0  0  0  0  0  0  0  0  0  0  0
   20.9208   20.2486   24.9153 H   0  0  0  0  0  0  0  0  0  0  0  0
   19.2245   20.0354   23.5968 C   0  0  0  0  0  0  0  0  0  0  0  0
   18.6142   19.2442   23.1484 H   0  0  0  0  0  0  0  0  0  0  0  0
   18.5459   20.5592   24.2831 H   0  0  0  0  0  0  0  0  0  0  0  0
   19.6555   21.0579   22.5141 C   0  0  0  0  0  0  0  0  0  0  0  0
   18.7402   21.4817   22.0787 H   0  0  0  0  0  0  0  0  0  0  0  0
   20.1730   21.8994   22.9943 H   0  0  0  0  0  0  0  0  0  0  0  0
   20.5312   20.5264   21.3509 C   0  0  0  0  0  0  0  0  0  0  0  0
   21.5851   20.4838   21.6483 H   0  0  0  0  0  0  0  0  0  0  0  0
   20.5017   21.2807   20.5527 H   0  0  0  0  0  0  0  0  0  0  0  0
   19.7517   18.6568   25.4824 O   0  0  0  0  0  0  0  0  0  0  0  0
   19.3542   17.8800   25.0396 H   0  0  0  0  0  0  0  0  0  0  0  0
  1  2  1  0  0  0  0
  1  3  1  0  0  0  0
  1  4  1  0  0  0  0
  4  5  1  0  0  0  0
  4  6  1  0  0  0  0
  4  7  1  0  0  0  0
  7  8  1  0  0  0  0
  7  9  1  0  0  0  0
  7 10  1  0  0  0  0
 10 11  1  0  0  0  0
 10 12  1  0  0  0  0
 10 13  1  0  0  0  0
 13 14  1  0  0  0  0
 13 15  1  0  0  0  0
 15 16  1  0  0  0  0
 15 17  1  0  0  0  0
 15 18  1  0  0  0  0
 18 19  1  0  0  0  0
 18 20  1  0  0  0  0
  1 21  1  0  0  0  0
 18 21  1  0  0  0  0
 21 22  1  0  0  0  0
 21 23  1  0  0  0  0
 13 24  1  0  0  0  0
 24 25  1  0  0  0  0
M  END
> <VM2 Rank>
9

> <Conf_Id>
1545

> <Probability>
3.33

> <Sum Probability>
35.70

> <Delta G>
0.204

> <G>
62.280

> <E>
29.544

> <-TS>
32.736

> <U+W>
8.976

> <U>
10.541

> <W>
-1.565

> <W(PB)>
-3.702

> <W(SA)>
2.137

> <Valence>
17.202

> <Coulomb>
-9.327

> <VdW>
2.666

> <VdW6>
-12.816

> <VdW12>
15.482

> <Bond>
0.428

> <Angle>
5.357

> <Pdih>
11.417

> <Idih>
0.000

> <Tether>
0.000

$$$$
VeraChem MOL file


 25 25  0  0  0  0  0  0  0  0999 V2000     
   20.1531   19.0665   20.7485 C   0  0  0  0  0  0  0  0  0  0  0  0
   20.2914   19.0933   19.6589 H   0  0  0  0  0  0  0  0  0  0  0  0
   19.2964   18.4002   20.9115 H   0  0  0  0  0  0  0  0  0  0  0  0
   21.4468   18.4774   21.3680 C   0  0  0  0  0  0  0  0  0  0  0  0
   21.9915   17.9421   20.5783 H   0  0  0  0  0  0  0  0  0  0  0  0
   22.1269   19.2805   21.6735 H   0  0  0  0  0  0  0  0  0  0  0  0
   21.2260   17.4756   22.5300 C   0  0  0  0  0  0  0  0  0  0  0  0
   22.1885   17.2848   23.0239 H   0  0  0  0  0  0  0  0  0  0  0  0
   20.9216   16.5152   22.0919 H   0  0  0  0  0  0  0  0  0  0  0  0
   20.1679   17.8555   23.5975 C   0  0  0  0  0  0  0  0  0  0  0  0
   19.1790   17.9439   23.1352 H   0  0  0  0  0  0  0  0  0  0  0  0
   20.0821   17.0028   24.2841 H   0  0  0  0  0  0  0  0  0  0  0  0
   20.4784   19.1051   24.4552 C   0  0  0  0  0  0  0  0  0  0  0  0
   21.4580   18.9582   24.9319 H   0  0  0  0  0  0  0  0  0  0  0  0
   20.5056   20.4674   23.7180 C   0  0  0  0  0  0  0  0  0  0  0  0
   20.4362   21.2553   24.4802 H   0  0  0  0  0  0  0  0  0  0  0  0
   21.4878   20.6253   23.2606 H   0  0  0  0  0  0  0  0  0  0  0  0
   19.3798   20.7007   22.6734 C   0  0  0  0  0  0  0  0  0  0  0  0
   19.0429   21.7411   22.7781 H   0  0  0  0  0  0  0  0  0  0  0  0
   18.4952   20.0902   22.8934 H   0  0  0  0  0  0  0  0  0  0  0  0
   19.8185   20.5129   21.1978 C   0  0  0  0  0  0  0  0  0  0  0  0
   20.6752   21.1672   20.9864 H   0  0  0  0  0  0  0  0  0  0  0  0
   19.0040   20.8803   20.5587 H   0  0  0  0  0  0  0  0  0  0  0  0
   19.4880   19.1819   25.4716 O   0  0  0  0  0  0  0  0  0  0  0  0
   18.6539   19.4166   25.0168 H   0  0  0  0  0  0  0  0  0  0  0  0
  1  2  1  0  0  0  0
  1  3  1  0  0  0  0
  1  4  1  0  0  0  0
  4  5  1  0  0  0  0
  4  6  1  0  0  0  0
  4  7  1  0  0  0  0
  7  8  1  0  0  0  0
  7  9  1  0  0  0  0
  7 10  1  0  0  0  0
 10 11  1  0  0  0  0
 10 12  1  0  0  0  0
 10 13  1  0  0  0  0
 13 14  1  0  0  0  0
 13 15  1  0  0  0  0
 15 16  1  0  0  0  0
 15 17  1  0  0  0  0
 15 18  1  0  0  0  0
 18 19  1  0  0  0  0
 18 20  1  0  0  0  0
  1 21  1  0  0  0  0
 18 21  1  0  0  0  0
 21 22  1  0  0  0  0
 21 23  1  0  0  0  0
 13 24  1  0  0  0  0
 24 25  1  0  0  0  0
M  END
> <VM2 Rank>
10

> <Conf_Id>
1062

> <Probability>
3.17

> <Sum Probability>
38.87

> <Delta G>
0.234

> <G>
62.309

> <E>
29.573

> <-TS>
32.736

> <U+W>
9.006

> <U>
10.541

> <W>
-1.536

> <W(PB)>
-3.659

> <W(SA)>
2.123

> <Valence>
17.202

> <Coulomb>
-9.327

> <VdW>
2.666

> <VdW6>
-12.816

> <VdW12>
15.482

> <Bond>
0.428

> <Angle>
5.357

> <Pdih>
11.417

> <Idih>
0.000

> <Tether>
0.000

$$$$
VeraChem MOL file


 25 25  0  0  0  0  0  0  0  0999 V2000     
   20.8851   19.4385   20.6772 C   0  0  0  0  0  0  0  0  0  0  0  0
   20.0833   19.0985   20.0076 H   0  0  0  0  0  0  0  0  0  0  0  0
   21.6960   19.7742   20.0163 H   0  0  0  0  0  0  0  0  0  0  0  0
   21.4146   18.2317   21.4956 C   0  0  0  0  0  0  0  0  0  0  0  0
   21.8471   17.5225   20.7765 H   0  0  0  0  0  0  0  0  0  0  0  0
   22.2523   18.5335   22.1375 H   0  0  0  0  0  0  0  0  0  0  0  0
   20.3317   17.4722   22.3048 C   0  0  0  0  0  0  0  0  0  0  0  0
   20.5190   16.3945   22.2031 H   0  0  0  0  0  0  0  0  0  0  0  0
   19.3425   17.6223   21.8577 H   0  0  0  0  0  0  0  0  0  0  0  0
   20.2996   17.7914   23.8223 C   0  0  0  0  0  0  0  0  0  0  0  0
   19.3733   17.3876   24.2515 H   0  0  0  0  0  0  0  0  0  0  0  0
   21.1187   17.2323   24.2933 H   0  0  0  0  0  0  0  0  0  0  0  0
   20.4467   19.2757   24.2334 C   0  0  0  0  0  0  0  0  0  0  0  0
   21.3877   19.6708   23.8312 H   0  0  0  0  0  0  0  0  0  0  0  0
   19.2856   20.2042   23.8067 C   0  0  0  0  0  0  0  0  0  0  0  0
   18.3471   19.8297   24.2356 H   0  0  0  0  0  0  0  0  0  0  0  0
   19.4602   21.1818   24.2752 H   0  0  0  0  0  0  0  0  0  0  0  0
   19.0880   20.4406   22.2863 C   0  0  0  0  0  0  0  0  0  0  0  0
   18.4539   21.3309   22.1759 H   0  0  0  0  0  0  0  0  0  0  0  0
   18.5011   19.6285   21.8425 H   0  0  0  0  0  0  0  0  0  0  0  0
   20.3927   20.6709   21.4806 C   0  0  0  0  0  0  0  0  0  0  0  0
   21.1921   21.0630   22.1224 H   0  0  0  0  0  0  0  0  0  0  0  0
   20.1939   21.4691   20.7523 H   0  0  0  0  0  0  0  0  0  0  0  0
   20.5200   19.3177   25.6531 O   0  0  0  0  0  0  0  0  0  0  0  0
   21.2929   18.7743   25.9128 H   0  0  0  0  0  0  0  0  0  0  0  0
  1  2  1  0  0  0  0
  1  3  1  0  0  0  0
  1  4  1  0  0  0  0
  4  5  1  0  0  0  0
  4  6  1  0  0  0  0
  4  7  1  0  0  0  0
  7  8  1  0  0  0  0
  7  9  1  0  0  0  0
  7 10  1  0  0  0  0
 10 11  1  0  0  0  0
 10 12  1  0  0  0  0
 10 13  1  0  0  0  0
 13 14  1  0  0  0  0
 13 15  1  0  0  0  0
 15 16  1  0  0  0  0
 15 17  1  0  0  0  0
 15 18  1  0  0  0  0
 18 19  1  0  0  0  0
 18 20  1  0  0  0  0
  1 21  1  0  0  0  0
 18 21  1  0  0  0  0
 21 22  1  0  0  0  0
 21 23  1  0  0  0  0
 13 24  1  0  0  0  0
 24 25  1  0  0  0  0
M  END
> <VM2 Rank>
11

> <Conf_Id>
1359

> <Probability>
3.09

> <Sum Probability>
41.96

> <Delta G>
0.248

> <G>
62.324

> <E>
29.662

> <-TS>
32.661

> <U+W>
9.095

> <U>
11.209

> <W>
-2.114

> <W(PB)>
-4.242

> <W(SA)>
2.128

> <Valence>
16.994

> <Coulomb>
-8.421

> <VdW>
2.637

> <VdW6>
-12.542

> <VdW12>
15.179

> <Bond>
0.410

> <Angle>
5.145

> <Pdih>
11.438

> <Idih>
0.000

> <Tether>
0.000

$$$$
VeraChem MOL file


 25 25  0  0  0  0  0  0  0  0999 V2000     
   20.8852   19.4383   20.6772 C   0  0  0  0  0  0  0  0  0  0  0  0
   20.0838   19.0976   20.0076 H   0  0  0  0  0  0  0  0  0  0  0  0
   21.6959   19.7745   20.0164 H   0  0  0  0  0  0  0  0  0  0  0  0
   21.4157   18.2318   21.4957 C   0  0  0  0  0  0  0  0  0  0  0  0
   21.8490   17.5231   20.7767 H   0  0  0  0  0  0  0  0  0  0  0  0
   22.2529   18.5341   22.1380 H   0  0  0  0  0  0  0  0  0  0  0  0
   20.3335   17.4711   22.3047 C   0  0  0  0  0  0  0  0  0  0  0  0
   20.5246   16.3937   22.2064 H   0  0  0  0  0  0  0  0  0  0  0  0
   19.3448   17.6168   21.8549 H   0  0  0  0  0  0  0  0  0  0  0  0
   20.2968   17.7936   23.8216 C   0  0  0  0  0  0  0  0  0  0  0  0
   19.3701   17.3910   24.2508 H   0  0  0  0  0  0  0  0  0  0  0  0
   21.1146   17.2381   24.2996 H   0  0  0  0  0  0  0  0  0  0  0  0
   20.4461   19.2770   24.2334 C   0  0  0  0  0  0  0  0  0  0  0  0
   21.3891   19.6672   23.8313 H   0  0  0  0  0  0  0  0  0  0  0  0
   19.2860   20.2078   23.8073 C   0  0  0  0  0  0  0  0  0  0  0  0
   18.3469   19.8343   24.2363 H   0  0  0  0  0  0  0  0  0  0  0  0
   19.4590   21.1888   24.2688 H   0  0  0  0  0  0  0  0  0  0  0  0
   19.0876   20.4385   22.2865 C   0  0  0  0  0  0  0  0  0  0  0  0
   18.4505   21.3263   22.1726 H   0  0  0  0  0  0  0  0  0  0  0  0
   18.5033   19.6230   21.8452 H   0  0  0  0  0  0  0  0  0  0  0  0
   20.3918   20.6702   21.4805 C   0  0  0  0  0  0  0  0  0  0  0  0
   21.1913   21.0630   22.1219 H   0  0  0  0  0  0  0  0  0  0  0  0
   20.1922   21.4682   20.7522 H   0  0  0  0  0  0  0  0  0  0  0  0
   20.5212   19.3148   25.6531 O   0  0  0  0  0  0  0  0  0  0  0  0
   20.6740   20.2497   25.9037 H   0  0  0  0  0  0  0  0  0  0  0  0
  1  2  1  0  0  0  0
  1  3  1  0  0  0  0
  1  4  1  0  0  0  0
  4  5  1  0  0  0  0
  4  6  1  0  0  0  0
  4  7  1  0  0  0  0
  7  8  1  0  0  0  0
  7  9  1  0  0  0  0
  7 10  1  0  0  0  0
 10 11  1  0  0  0  0
 10 12  1  0  0  0  0
 10 13  1  0  0  0  0
 13 14  1  0  0  0  0
 13 15  1  0  0  0  0
 15 16  1  0  0  0  0
 15 17  1  0  0  0  0
 15 18  1  0  0  0  0
 18 19  1  0  0  0  0
 18 20  1  0  0  0  0
  1 21  1  0  0  0  0
 18 21  1  0  0  0  0
 21 22  1  0  0  0  0
 21 23  1  0  0  0  0
 13 24  1  0  0  0  0
 24 25  1  0  0  0  0
M  END
> <VM2 Rank>
12

> <Conf_Id>
1291

> <Probability>
3.04

> <Sum Probability>
45.01

> <Delta G>
0.258

> <G>
62.334

> <E>
29.672

> <-TS>
32.661

> <U+W>
9.105

> <U>
11.209

> <W>
-2.104

> <W(PB)>
-4.233

> <W(SA)>
2.129

> <Valence>
16.993

> <Coulomb>
-8.421

> <VdW>
2.637

> <VdW6>
-12.542

> <VdW12>
15.179

> <Bond>
0.410

> <Angle>
5.145

> <Pdih>
11.438

> <Idih>
0.000

> <Tether>
0.000

$$$$
VeraChem MOL file


 25 25  0  0  0  0  0  0  0  0999 V2000     
   20.5590   19.2234   20.6054 C   0  0  0  0  0  0  0  0  0  0  0  0
   20.0763   18.4739   19.9638 H   0  0  0  0  0  0  0  0  0  0  0  0
   21.1341   19.8678   19.9264 H   0  0  0  0  0  0  0  0  0  0  0  0
   21.5726   18.5184   21.5415 C   0  0  0  0  0  0  0  0  0  0  0  0
   22.3220   18.0317   20.9025 H   0  0  0  0  0  0  0  0  0  0  0  0
   22.1402   19.2598   22.1154 H   0  0  0  0  0  0  0  0  0  0  0  0
   20.9931   17.4302   22.4800 C   0  0  0  0  0  0  0  0  0  0  0  0
   21.8387   16.9473   22.9888 H   0  0  0  0  0  0  0  0  0  0  0  0
   20.5212   16.6439   21.8754 H   0  0  0  0  0  0  0  0  0  0  0  0
   19.9900   17.9010   23.5648 C   0  0  0  0  0  0  0  0  0  0  0  0
   18.9905   18.0125   23.1324 H   0  0  0  0  0  0  0  0  0  0  0  0
   19.8841   17.0796   24.2859 H   0  0  0  0  0  0  0  0  0  0  0  0
   20.3950   19.1974   24.3132 C   0  0  0  0  0  0  0  0  0  0  0  0
   21.4728   19.3728   24.1966 H   0  0  0  0  0  0  0  0  0  0  0  0
   19.6236   20.4599   23.8542 C   0  0  0  0  0  0  0  0  0  0  0  0
   18.5449   20.2748   23.9391 H   0  0  0  0  0  0  0  0  0  0  0  0
   19.8434   21.2626   24.5704 H   0  0  0  0  0  0  0  0  0  0  0  0
   19.9447   21.0004   22.4339 C   0  0  0  0  0  0  0  0  0  0  0  0
   21.0133   21.2318   22.3378 H   0  0  0  0  0  0  0  0  0  0  0  0
   19.4320   21.9670   22.3358 H   0  0  0  0  0  0  0  0  0  0  0  0
   19.4629   20.0970   21.2692 C   0  0  0  0  0  0  0  0  0  0  0  0
   19.0483   20.7444   20.4844 H   0  0  0  0  0  0  0  0  0  0  0  0
   18.6158   19.4787   21.5871 H   0  0  0  0  0  0  0  0  0  0  0  0
   20.1230   19.0154   25.6978 O   0  0  0  0  0  0  0  0  0  0  0  0
   20.6688   18.2570   25.9937 H   0  0  0  0  0  0  0  0  0  0  0  0
  1  2  1  0  0  0  0
  1  3  1  0  0  0  0
  1  4  1  0  0  0  0
  4  5  1  0  0  0  0
  4  6  1  0  0  0  0
  4  7  1  0  0  0  0
  7  8  1  0  0  0  0
  7  9  1  0  0  0  0
  7 10  1  0  0  0  0
 10 11  1  0  0  0  0
 10 12  1  0  0  0  0
 10 13  1  0  0  0  0
 13 14  1  0  0  0  0
 13 15  1  0  0  0  0
 15 16  1  0  0  0  0
 15 17  1  0  0  0  0
 15 18  1  0  0  0  0
 18 19  1  0  0  0  0
 18 20  1  0  0  0  0
  1 21  1  0  0  0  0
 18 21  1  0  0  0  0
 21 22  1  0  0  0  0
 21 23  1  0  0  0  0
 13 24  1  0  0  0  0
 24 25  1  0  0  0  0
M  END
> <VM2 Rank>
13

> <Conf_Id>
72

> <Probability>
2.65

> <Sum Probability>
47.66

> <Delta G>
0.340

> <G>
62.415

> <E>
29.634

> <-TS>
32.781

> <U+W>
9.067

> <U>
11.150

> <W>
-2.083

> <W(PB)>
-4.217

> <W(SA)>
2.134

> <Valence>
16.583

> <Coulomb>
-8.361

> <VdW>
2.928

> <VdW6>
-12.538

> <VdW12>
15.466

> <Bond>
0.441

> <Angle>
5.093

> <Pdih>
11.049

> <Idih>
0.000

> <Tether>
0.000

$$$$
VeraChem MOL file


 25 25  0  0  0  0  0  0  0  0999 V2000     
   20.5224   19.3667   20.6072 C   0  0  0  0  0  0  0  0  0  0  0  0
   21.3928   19.3139   19.9388 H   0  0  0  0  0  0  0  0  0  0  0  0
   19.6590   19.5528   19.9542 H   0  0  0  0  0  0  0  0  0  0  0  0
   20.3561   17.9772   21.2757 C   0  0  0  0  0  0  0  0  0  0  0  0
   19.3161   17.8175   21.5818 H   0  0  0  0  0  0  0  0  0  0  0  0
   20.5298   17.2224   20.4965 H   0  0  0  0  0  0  0  0  0  0  0  0
   21.3213   17.6840   22.4535 C   0  0  0  0  0  0  0  0  0  0  0  0
   22.2421   18.2750   22.3657 H   0  0  0  0  0  0  0  0  0  0  0  0
   21.6428   16.6373   22.3642 H   0  0  0  0  0  0  0  0  0  0  0  0
   20.6952   17.8464   23.8656 C   0  0  0  0  0  0  0  0  0  0  0  0
   19.8001   17.2154   23.9426 H   0  0  0  0  0  0  0  0  0  0  0  0
   21.4093   17.4371   24.5924 H   0  0  0  0  0  0  0  0  0  0  0  0
   20.3433   19.2868   24.3135 C   0  0  0  0  0  0  0  0  0  0  0  0
   21.2313   19.9238   24.2045 H   0  0  0  0  0  0  0  0  0  0  0  0
   19.1498   19.9143   23.5476 C   0  0  0  0  0  0  0  0  0  0  0  0
   18.5267   19.1271   23.1115 H   0  0  0  0  0  0  0  0  0  0  0  0
   18.4858   20.4241   24.2584 H   0  0  0  0  0  0  0  0  0  0  0  0
   19.5400   20.9512   22.4625 C   0  0  0  0  0  0  0  0  0  0  0  0
   19.7909   21.8928   22.9699 H   0  0  0  0  0  0  0  0  0  0  0  0
   18.6577   21.1712   21.8462 H   0  0  0  0  0  0  0  0  0  0  0  0
   20.7302   20.5862   21.5401 C   0  0  0  0  0  0  0  0  0  0  0  0
   21.6487   20.4655   22.1256 H   0  0  0  0  0  0  0  0  0  0  0  0
   20.9242   21.4571   20.8991 H   0  0  0  0  0  0  0  0  0  0  0  0
   20.0056   19.2301   25.6944 O   0  0  0  0  0  0  0  0  0  0  0  0
   19.8524   20.1537   25.9841 H   0  0  0  0  0  0  0  0  0  0  0  0
  1  2  1  0  0  0  0
  1  3  1  0  0  0  0
  1  4  1  0  0  0  0
  4  5  1  0  0  0  0
  4  6  1  0  0  0  0
  4  7  1  0  0  0  0
  7  8  1  0  0  0  0
  7  9  1  0  0  0  0
  7 10  1  0  0  0  0
 10 11  1  0  0  0  0
 10 12  1  0  0  0  0
 10 13  1  0  0  0  0
 13 14  1  0  0  0  0
 13 15  1  0  0  0  0
 15 16  1  0  0  0  0
 15 17  1  0  0  0  0
 15 18  1  0  0  0  0
 18 19  1  0  0  0  0
 18 20  1  0  0  0  0
  1 21  1  0  0  0  0
 18 21  1  0  0  0  0
 21 22  1  0  0  0  0
 21 23  1  0  0  0  0
 13 24  1  0  0  0  0
 24 25  1  0  0  0  0
M  END
> <VM2 Rank>
14

> <Conf_Id>
747

> <Probability>
2.62

> <Sum Probability>
50.28

> <Delta G>
0.348

> <G>
62.424

> <E>
29.643

> <-TS>
32.781

> <U+W>
9.075

> <U>
11.150

> <W>
-2.074

> <W(PB)>
-4.196

> <W(SA)>
2.121

> <Valence>
16.583

> <Coulomb>
-8.361

> <VdW>
2.928

> <VdW6>
-12.538

> <VdW12>
15.466

> <Bond>
0.441

> <Angle>
5.093

> <Pdih>
11.049

> <Idih>
0.000

> <Tether>
0.000

$$$$
VeraChem MOL file


 25 25  0  0  0  0  0  0  0  0999 V2000     
   20.5219   19.3658   20.6059 C   0  0  0  0  0  0  0  0  0  0  0  0
   21.3926   19.3110   19.9382 H   0  0  0  0  0  0  0  0  0  0  0  0
   19.6589   19.5520   19.9525 H   0  0  0  0  0  0  0  0  0  0  0  0
   20.3535   17.9781   21.2770 C   0  0  0  0  0  0  0  0  0  0  0  0
   19.3140   17.8223   21.5866 H   0  0  0  0  0  0  0  0  0  0  0  0
   20.5229   17.2212   20.4989 H   0  0  0  0  0  0  0  0  0  0  0  0
   21.3216   17.6858   22.4526 C   0  0  0  0  0  0  0  0  0  0  0  0
   22.2419   18.2773   22.3626 H   0  0  0  0  0  0  0  0  0  0  0  0
   21.6438   16.6394   22.3619 H   0  0  0  0  0  0  0  0  0  0  0  0
   20.6984   17.8470   23.8658 C   0  0  0  0  0  0  0  0  0  0  0  0
   19.8032   17.2156   23.9415 H   0  0  0  0  0  0  0  0  0  0  0  0
   21.4150   17.4331   24.5873 H   0  0  0  0  0  0  0  0  0  0  0  0
   20.3446   19.2873   24.3153 C   0  0  0  0  0  0  0  0  0  0  0  0
   21.2296   19.9290   24.2094 H   0  0  0  0  0  0  0  0  0  0  0  0
   19.1520   19.9158   23.5494 C   0  0  0  0  0  0  0  0  0  0  0  0
   18.5224   19.1300   23.1201 H   0  0  0  0  0  0  0  0  0  0  0  0
   18.4974   20.4310   24.2653 H   0  0  0  0  0  0  0  0  0  0  0  0
   19.5402   20.9502   22.4608 C   0  0  0  0  0  0  0  0  0  0  0  0
   19.7909   21.8924   22.9670 H   0  0  0  0  0  0  0  0  0  0  0  0
   18.6570   21.1686   21.8454 H   0  0  0  0  0  0  0  0  0  0  0  0
   20.7301   20.5856   21.5380 C   0  0  0  0  0  0  0  0  0  0  0  0
   21.6485   20.4653   22.1239 H   0  0  0  0  0  0  0  0  0  0  0  0
   20.9238   21.4563   20.8968 H   0  0  0  0  0  0  0  0  0  0  0  0
   20.0015   19.2276   25.6952 O   0  0  0  0  0  0  0  0  0  0  0  0
   20.7878   18.8834   26.1680 H   0  0  0  0  0  0  0  0  0  0  0  0
  1  2  1  0  0  0  0
  1  3  1  0  0  0  0
  1  4  1  0  0  0  0
  4  5  1  0  0  0  0
  4  6  1  0  0  0  0
  4  7  1  0  0  0  0
  7  8  1  0  0  0  0
  7  9  1  0  0  0  0
  7 10  1  0  0  0  0
 10 11  1  0  0  0  0
 10 12  1  0  0  0  0
 10 13  1  0  0  0  0
 13 14  1  0  0  0  0
 13 15  1  0  0  0  0
 15 16  1  0  0  0  0
 15 17  1  0  0  0  0
 15 18  1  0  0  0  0
 18 19  1  0  0  0  0
 18 20  1  0  0  0  0
  1 21  1  0  0  0  0
 18 21  1  0  0  0  0
 21 22  1  0  0  0  0
 21 23  1  0  0  0  0
 13 24  1  0  0  0  0
 24 25  1  0  0  0  0
M  END
> <VM2 Rank>
15

> <Conf_Id>
1433

> <Probability>
2.59

> <Sum Probability>
52.87

> <Delta G>
0.354

> <G>
62.430

> <E>
29.684

> <-TS>
32.745

> <U+W>
9.117

> <U>
11.364

> <W>
-2.248

> <W(PB)>
-4.367

> <W(SA)>
2.119

> <Valence>
16.582

> <Coulomb>
-8.150

> <VdW>
2.932

> <VdW6>
-12.531

> <VdW12>
15.464

> <Bond>
0.439

> <Angle>
5.099

> <Pdih>
11.044

> <Idih>
0.000

> <Tether>
0.000

$$$$
VeraChem MOL file


 25 25  0  0  0  0  0  0  0  0999 V2000     
   20.5580   19.2236   20.6041 C   0  0  0  0  0  0  0  0  0  0  0  0
   20.0756   18.4743   19.9621 H   0  0  0  0  0  0  0  0  0  0  0  0
   21.1319   19.8696   19.9257 H   0  0  0  0  0  0  0  0  0  0  0  0
   21.5721   18.5188   21.5395 C   0  0  0  0  0  0  0  0  0  0  0  0
   22.3211   18.0319   20.9001 H   0  0  0  0  0  0  0  0  0  0  0  0
   22.1399   19.2598   22.1137 H   0  0  0  0  0  0  0  0  0  0  0  0
   20.9926   17.4310   22.4783 C   0  0  0  0  0  0  0  0  0  0  0  0
   21.8384   16.9475   22.9860 H   0  0  0  0  0  0  0  0  0  0  0  0
   20.5189   16.6451   21.8747 H   0  0  0  0  0  0  0  0  0  0  0  0
   19.9926   17.9016   23.5665 C   0  0  0  0  0  0  0  0  0  0  0  0
   18.9896   18.0075   23.1412 H   0  0  0  0  0  0  0  0  0  0  0  0
   19.8973   17.0831   24.2928 H   0  0  0  0  0  0  0  0  0  0  0  0
   20.3962   19.1981   24.3150 C   0  0  0  0  0  0  0  0  0  0  0  0
   21.4753   19.3681   24.2014 H   0  0  0  0  0  0  0  0  0  0  0  0
   19.6264   20.4618   23.8544 C   0  0  0  0  0  0  0  0  0  0  0  0
   18.5472   20.2769   23.9379 H   0  0  0  0  0  0  0  0  0  0  0  0
   19.8447   21.2695   24.5651 H   0  0  0  0  0  0  0  0  0  0  0  0
   19.9461   20.9993   22.4329 C   0  0  0  0  0  0  0  0  0  0  0  0
   21.0147   21.2300   22.3347 H   0  0  0  0  0  0  0  0  0  0  0  0
   19.4341   21.9662   22.3334 H   0  0  0  0  0  0  0  0  0  0  0  0
   19.4617   20.0944   21.2706 C   0  0  0  0  0  0  0  0  0  0  0  0
   19.0426   20.7403   20.4869 H   0  0  0  0  0  0  0  0  0  0  0  0
   18.6176   19.4738   21.5920 H   0  0  0  0  0  0  0  0  0  0  0  0
   20.1184   19.0144   25.6986 O   0  0  0  0  0  0  0  0  0  0  0  0
   20.4340   19.8191   26.1603 H   0  0  0  0  0  0  0  0  0  0  0  0
  1  2  1  0  0  0  0
  1  3  1  0  0  0  0
  1  4  1  0  0  0  0
  4  5  1  0  0  0  0
  4  6  1  0  0  0  0
  4  7  1  0  0  0  0
  7  8  1  0  0  0  0
  7  9  1  0  0  0  0
  7 10  1  0  0  0  0
 10 11  1  0  0  0  0
 10 12  1  0  0  0  0
 10 13  1  0  0  0  0
 13 14  1  0  0  0  0
 13 15  1  0  0  0  0
 15 16  1  0  0  0  0
 15 17  1  0  0  0  0
 15 18  1  0  0  0  0
 18 19  1  0  0  0  0
 18 20  1  0  0  0  0
  1 21  1  0  0  0  0
 18 21  1  0  0  0  0
 21 22  1  0  0  0  0
 21 23  1  0  0  0  0
 13 24  1  0  0  0  0
 24 25  1  0  0  0  0
M  END
> <VM2 Rank>
16

> <Conf_Id>
324

> <Probability>
2.52

> <Sum Probability>
55.39

> <Delta G>
0.370

> <G>
62.445

> <E>
29.700

> <-TS>
32.745

> <U+W>
9.133

> <U>
11.364

> <W>
-2.232

> <W(PB)>
-4.359

> <W(SA)>
2.127

> <Valence>
16.582

> <Coulomb>
-8.150

> <VdW>
2.933

> <VdW6>
-12.531

> <VdW12>
15.464

> <Bond>
0.439

> <Angle>
5.099

> <Pdih>
11.044

> <Idih>
0.000

> <Tether>
0.000

$$$$
VeraChem MOL file


 25 25  0  0  0  0  0  0  0  0999 V2000     
   20.5216   19.3656   20.6066 C   0  0  0  0  0  0  0  0  0  0  0  0
   19.6580   19.5518   19.9539 H   0  0  0  0  0  0  0  0  0  0  0  0
   21.3917   19.3115   19.9382 H   0  0  0  0  0  0  0  0  0  0  0  0
   20.3545   17.9776   21.2773 C   0  0  0  0  0  0  0  0  0  0  0  0
   19.3149   17.8205   21.5861 H   0  0  0  0  0  0  0  0  0  0  0  0
   20.5251   17.2211   20.4990 H   0  0  0  0  0  0  0  0  0  0  0  0
   21.3223   17.6859   22.4532 C   0  0  0  0  0  0  0  0  0  0  0  0
   22.2419   18.2786   22.3644 H   0  0  0  0  0  0  0  0  0  0  0  0
   21.6459   16.6400   22.3628 H   0  0  0  0  0  0  0  0  0  0  0  0
   20.6974   17.8465   23.8655 C   0  0  0  0  0  0  0  0  0  0  0  0
   19.8056   17.2106   23.9394 H   0  0  0  0  0  0  0  0  0  0  0  0
   21.4150   17.4388   24.5902 H   0  0  0  0  0  0  0  0  0  0  0  0
   20.3427   19.2866   24.3140 C   0  0  0  0  0  0  0  0  0  0  0  0
   21.2289   19.9267   24.2099 H   0  0  0  0  0  0  0  0  0  0  0  0
   19.1501   19.9168   23.5491 C   0  0  0  0  0  0  0  0  0  0  0  0
   18.5203   19.1330   23.1161 H   0  0  0  0  0  0  0  0  0  0  0  0
   18.4957   20.4353   24.2628 H   0  0  0  0  0  0  0  0  0  0  0  0
   19.5407   20.9510   22.4614 C   0  0  0  0  0  0  0  0  0  0  0  0
   19.7930   21.8926   22.9683 H   0  0  0  0  0  0  0  0  0  0  0  0
   18.6583   21.1716   21.8456 H   0  0  0  0  0  0  0  0  0  0  0  0
   20.7305   20.5853   21.5389 C   0  0  0  0  0  0  0  0  0  0  0  0
   20.9249   21.4558   20.8977 H   0  0  0  0  0  0  0  0  0  0  0  0
   21.6487   20.4645   22.1250 H   0  0  0  0  0  0  0  0  0  0  0  0
   20.0042   19.2276   25.6939 O   0  0  0  0  0  0  0  0  0  0  0  0
   19.2165   18.6498   25.7610 H   0  0  0  0  0  0  0  0  0  0  0  0
  1  2  1  0  0  0  0
  1  3  1  0  0  0  0
  1  4  1  0  0  0  0
  4  5  1  0  0  0  0
  4  6  1  0  0  0  0
  4  7  1  0  0  0  0
  7  8  1  0  0  0  0
  7  9  1  0  0  0  0
  7 10  1  0  0  0  0
 10 11  1  0  0  0  0
 10 12  1  0  0  0  0
 10 13  1  0  0  0  0
 13 14  1  0  0  0  0
 13 15  1  0  0  0  0
 15 16  1  0  0  0  0
 15 17  1  0  0  0  0
 15 18  1  0  0  0  0
 18 19  1  0  0  0  0
 18 20  1  0  0  0  0
  1 21  1  0  0  0  0
 18 21  1  0  0  0  0
 21 22  1  0  0  0  0
 21 23  1  0  0  0  0
 13 24  1  0  0  0  0
 24 25  1  0  0  0  0
M  END
> <VM2 Rank>
17

> <Conf_Id>
1695

> <Probability>
2.48

> <Sum Probability>
57.87

> <Delta G>
0.380

> <G>
62.455

> <E>
29.716

> <-TS>
32.739

> <U+W>
9.148

> <U>
11.181

> <W>
-2.033

> <W(PB)>
-4.147

> <W(SA)>
2.114

> <Valence>
16.955

> <Coulomb>
-8.661

> <VdW>
2.887

> <VdW6>
-12.561

> <VdW12>
15.448

> <Bond>
0.433

> <Angle>
5.120

> <Pdih>
11.402

> <Idih>
0.000

> <Tether>
0.000

$$$$
VeraChem MOL file


 25 25  0  0  0  0  0  0  0  0999 V2000     
   20.8860   19.4387   20.6782 C   0  0  0  0  0  0  0  0  0  0  0  0
   20.0847   19.0985   20.0081 H   0  0  0  0  0  0  0  0  0  0  0  0
   21.6970   19.7748   20.0178 H   0  0  0  0  0  0  0  0  0  0  0  0
   21.4157   18.2320   21.4967 C   0  0  0  0  0  0  0  0  0  0  0  0
   21.8496   17.5234   20.7779 H   0  0  0  0  0  0  0  0  0  0  0  0
   22.2523   18.5342   22.1398 H   0  0  0  0  0  0  0  0  0  0  0  0
   20.3328   17.4711   22.3046 C   0  0  0  0  0  0  0  0  0  0  0  0
   19.3443   17.6189   21.8552 H   0  0  0  0  0  0  0  0  0  0  0  0
   20.5227   16.3936   22.2042 H   0  0  0  0  0  0  0  0  0  0  0  0
   20.2969   17.7910   23.8219 C   0  0  0  0  0  0  0  0  0  0  0  0
   19.3714   17.3826   24.2480 H   0  0  0  0  0  0  0  0  0  0  0  0
   21.1179   17.2371   24.2966 H   0  0  0  0  0  0  0  0  0  0  0  0
   20.4437   19.2752   24.2327 C   0  0  0  0  0  0  0  0  0  0  0  0
   21.3856   19.6678   23.8308 H   0  0  0  0  0  0  0  0  0  0  0  0
   19.2839   20.2062   23.8070 C   0  0  0  0  0  0  0  0  0  0  0  0
   18.3421   19.8367   24.2328 H   0  0  0  0  0  0  0  0  0  0  0  0
   19.4620   21.1850   24.2722 H   0  0  0  0  0  0  0  0  0  0  0  0
   19.0876   20.4401   22.2862 C   0  0  0  0  0  0  0  0  0  0  0  0
   18.5022   19.6267   21.8427 H   0  0  0  0  0  0  0  0  0  0  0  0
   18.4526   21.3296   22.1736 H   0  0  0  0  0  0  0  0  0  0  0  0
   20.3929   20.6708   21.4816 C   0  0  0  0  0  0  0  0  0  0  0  0
   21.1919   21.0626   22.1242 H   0  0  0  0  0  0  0  0  0  0  0  0
   20.1948   21.4693   20.7535 H   0  0  0  0  0  0  0  0  0  0  0  0
   20.5245   19.3179   25.6510 O   0  0  0  0  0  0  0  0  0  0  0  0
   19.6761   18.9642   25.9882 H   0  0  0  0  0  0  0  0  0  0  0  0
  1  2  1  0  0  0  0
  1  3  1  0  0  0  0
  1  4  1  0  0  0  0
  4  5  1  0  0  0  0
  4  6  1  0  0  0  0
  4  7  1  0  0  0  0
  7  8  1  0  0  0  0
  7  9  1  0  0  0  0
  7 10  1  0  0  0  0
 10 11  1  0  0  0  0
 10 12  1  0  0  0  0
 10 13  1  0  0  0  0
 13 14  1  0  0  0  0
 13 15  1  0  0  0  0
 15 16  1  0  0  0  0
 15 17  1  0  0  0  0
 15 18  1  0  0  0  0
 18 19  1  0  0  0  0
 18 20  1  0  0  0  0
  1 21  1  0  0  0  0
 18 21  1  0  0  0  0
 21 22  1  0  0  0  0
 21 23  1  0  0  0  0
 13 24  1  0  0  0  0
 24 25  1  0  0  0  0
M  END
> <VM2 Rank>
18

> <Conf_Id>
1626

> <Probability>
2.41

> <Sum Probability>
60.28

> <Delta G>
0.398

> <G>
62.474

> <E>
29.828

> <-TS>
32.646

> <U+W>
9.260

> <U>
11.191

> <W>
-1.930

> <W(PB)>
-4.074

> <W(SA)>
2.144

> <Valence>
17.334

> <Coulomb>
-8.749

> <VdW>
2.606

> <VdW6>
-12.571

> <VdW12>
15.178

> <Bond>
0.408

> <Angle>
5.152

> <Pdih>
11.774

> <Idih>
0.000

> <Tether>
0.000

$$$$
VeraChem MOL file


 25 25  0  0  0  0  0  0  0  0999 V2000     
   20.5577   19.2235   20.6049 C   0  0  0  0  0  0  0  0  0  0  0  0
   20.0748   18.4739   19.9635 H   0  0  0  0  0  0  0  0  0  0  0  0
   21.1316   19.8687   19.9257 H   0  0  0  0  0  0  0  0  0  0  0  0
   21.5720   18.5191   21.5404 C   0  0  0  0  0  0  0  0  0  0  0  0
   22.3214   18.0328   20.9010 H   0  0  0  0  0  0  0  0  0  0  0  0
   22.1394   19.2603   22.1148 H   0  0  0  0  0  0  0  0  0  0  0  0
   20.9934   17.4307   22.4789 C   0  0  0  0  0  0  0  0  0  0  0  0
   21.8398   16.9487   22.9871 H   0  0  0  0  0  0  0  0  0  0  0  0
   20.5216   16.6439   21.8749 H   0  0  0  0  0  0  0  0  0  0  0  0
   19.9918   17.8996   23.5663 C   0  0  0  0  0  0  0  0  0  0  0  0
   18.9901   18.0041   23.1372 H   0  0  0  0  0  0  0  0  0  0  0  0
   19.8988   17.0787   24.2903 H   0  0  0  0  0  0  0  0  0  0  0  0
   20.3944   19.1972   24.3137 C   0  0  0  0  0  0  0  0  0  0  0  0
   21.4732   19.3691   24.2020 H   0  0  0  0  0  0  0  0  0  0  0  0
   19.6255   20.4615   23.8541 C   0  0  0  0  0  0  0  0  0  0  0  0
   18.5455   20.2823   23.9357 H   0  0  0  0  0  0  0  0  0  0  0  0
   19.8489   21.2655   24.5681 H   0  0  0  0  0  0  0  0  0  0  0  0
   19.9469   20.9997   22.4336 C   0  0  0  0  0  0  0  0  0  0  0  0
   21.0159   21.2290   22.3365 H   0  0  0  0  0  0  0  0  0  0  0  0
   19.4364   21.9674   22.3343 H   0  0  0  0  0  0  0  0  0  0  0  0
   19.4620   20.0956   21.2708 C   0  0  0  0  0  0  0  0  0  0  0  0
   19.0442   20.7421   20.4870 H   0  0  0  0  0  0  0  0  0  0  0  0
   18.6171   19.4759   21.5915 H   0  0  0  0  0  0  0  0  0  0  0  0
   20.1203   19.0161   25.6973 O   0  0  0  0  0  0  0  0  0  0  0  0
   19.1549   18.8693   25.7711 H   0  0  0  0  0  0  0  0  0  0  0  0
  1  2  1  0  0  0  0
  1  3  1  0  0  0  0
  1  4  1  0  0  0  0
  4  5  1  0  0  0  0
  4  6  1  0  0  0  0
  4  7  1  0  0  0  0
  7  8  1  0  0  0  0
  7  9  1  0  0  0  0
  7 10  1  0  0  0  0
 10 11  1  0  0  0  0
 10 12  1  0  0  0  0
 10 13  1  0  0  0  0
 13 14  1  0  0  0  0
 13 15  1  0  0  0  0
 15 16  1  0  0  0  0
 15 17  1  0  0  0  0
 15 18  1  0  0  0  0
 18 19  1  0  0  0  0
 18 20  1  0  0  0  0
  1 21  1  0  0  0  0
 18 21  1  0  0  0  0
 21 22  1  0  0  0  0
 21 23  1  0  0  0  0
 13 24  1  0  0  0  0
 24 25  1  0  0  0  0
M  END
> <VM2 Rank>
19

> <Conf_Id>
1691

> <Probability>
2.23

> <Sum Probability>
62.51

> <Delta G>
0.443

> <G>
62.519

> <E>
29.779

> <-TS>
32.740

> <U+W>
9.212

> <U>
11.181

> <W>
-1.969

> <W(PB)>
-4.091

> <W(SA)>
2.122

> <Valence>
16.955

> <Coulomb>
-8.661

> <VdW>
2.887

> <VdW6>
-12.561

> <VdW12>
15.448

> <Bond>
0.433

> <Angle>
5.120

> <Pdih>
11.402

> <Idih>
0.000

> <Tether>
0.000

$$$$
VeraChem MOL file


 25 25  0  0  0  0  0  0  0  0999 V2000     
   20.0735   19.1664   20.7523 C   0  0  0  0  0  0  0  0  0  0  0  0
   20.1712   19.2335   19.6601 H   0  0  0  0  0  0  0  0  0  0  0  0
   19.0052   18.9920   20.9335 H   0  0  0  0  0  0  0  0  0  0  0  0
   20.9149   17.9454   21.2079 C   0  0  0  0  0  0  0  0  0  0  0  0
   20.6227   17.0886   20.5857 H   0  0  0  0  0  0  0  0  0  0  0  0
   21.9737   18.1273   20.9787 H   0  0  0  0  0  0  0  0  0  0  0  0
   20.7766   17.5174   22.6924 C   0  0  0  0  0  0  0  0  0  0  0  0
   21.3139   16.5660   22.8050 H   0  0  0  0  0  0  0  0  0  0  0  0
   19.7314   17.2855   22.9348 H   0  0  0  0  0  0  0  0  0  0  0  0
   21.3784   18.5188   23.7152 C   0  0  0  0  0  0  0  0  0  0  0  0
   21.9282   17.9448   24.4726 H   0  0  0  0  0  0  0  0  0  0  0  0
   22.1475   19.1346   23.2377 H   0  0  0  0  0  0  0  0  0  0  0  0
   20.3599   19.4226   24.4558 C   0  0  0  0  0  0  0  0  0  0  0  0
   20.9186   20.2449   24.9254 H   0  0  0  0  0  0  0  0  0  0  0  0
   19.2291   20.0390   23.5989 C   0  0  0  0  0  0  0  0  0  0  0  0
   18.6174   19.2465   23.1547 H   0  0  0  0  0  0  0  0  0  0  0  0
   18.5514   20.5633   24.2855 H   0  0  0  0  0  0  0  0  0  0  0  0
   19.6615   21.0599   22.5147 C   0  0  0  0  0  0  0  0  0  0  0  0
   20.1860   21.8982   22.9930 H   0  0  0  0  0  0  0  0  0  0  0  0
   18.7463   21.4891   22.0847 H   0  0  0  0  0  0  0  0  0  0  0  0
   20.5275   20.5255   21.3452 C   0  0  0  0  0  0  0  0  0  0  0  0
   21.5842   20.4852   21.6328 H   0  0  0  0  0  0  0  0  0  0  0  0
   20.4899   21.2774   20.5450 H   0  0  0  0  0  0  0  0  0  0  0  0
   19.7426   18.6480   25.4777 O   0  0  0  0  0  0  0  0  0  0  0  0
   20.4646   18.2754   26.0245 H   0  0  0  0  0  0  0  0  0  0  0  0
  1  2  1  0  0  0  0
  1  3  1  0  0  0  0
  1  4  1  0  0  0  0
  4  5  1  0  0  0  0
  4  6  1  0  0  0  0
  4  7  1  0  0  0  0
  7  8  1  0  0  0  0
  7  9  1  0  0  0  0
  7 10  1  0  0  0  0
 10 11  1  0  0  0  0
 10 12  1  0  0  0  0
 10 13  1  0  0  0  0
 13 14  1  0  0  0  0
 13 15  1  0  0  0  0
 15 16  1  0  0  0  0
 15 17  1  0  0  0  0
 15 18  1  0  0  0  0
 18 19  1  0  0  0  0
 18 20  1  0  0  0  0
  1 21  1  0  0  0  0
 18 21  1  0  0  0  0
 21 22  1  0  0  0  0
 21 23  1  0  0  0  0
 13 24  1  0  0  0  0
 24 25  1  0  0  0  0
M  END
> <VM2 Rank>
20

> <Conf_Id>
1051

> <Probability>
2.00

> <Sum Probability>
64.51

> <Delta G>
0.509

> <G>
62.584

> <E>
29.865

> <-TS>
32.719

> <U+W>
9.298

> <U>
11.545

> <W>
-2.247

> <W(PB)>
-4.380

> <W(SA)>
2.133

> <Valence>
16.814

> <Coulomb>
-7.999

> <VdW>
2.729

> <VdW6>
-12.749

> <VdW12>
15.478

> <Bond>
0.438

> <Angle>
5.318

> <Pdih>
11.059

> <Idih>
0.000

> <Tether>
0.000

$$$$
VeraChem MOL file


 25 25  0  0  0  0  0  0  0  0999 V2000     
   21.0585   19.5298   20.9914 C   0  0  0  0  0  0  0  0  0  0  0  0
   21.4210   19.6842   19.9660 H   0  0  0  0  0  0  0  0  0  0  0  0
   21.8766   19.8817   21.6302 H   0  0  0  0  0  0  0  0  0  0  0  0
   20.8426   18.0078   21.1798 C   0  0  0  0  0  0  0  0  0  0  0  0
   20.0921   17.6555   20.4593 H   0  0  0  0  0  0  0  0  0  0  0  0
   21.7794   17.5054   20.9026 H   0  0  0  0  0  0  0  0  0  0  0  0
   20.4459   17.5235   22.5975 C   0  0  0  0  0  0  0  0  0  0  0  0
   20.6216   16.4395   22.6279 H   0  0  0  0  0  0  0  0  0  0  0  0
   19.3668   17.6265   22.7489 H   0  0  0  0  0  0  0  0  0  0  0  0
   21.2434   18.1718   23.7641 C   0  0  0  0  0  0  0  0  0  0  0  0
   21.4664   17.3819   24.4935 H   0  0  0  0  0  0  0  0  0  0  0  0
   22.2251   18.5141   23.4149 H   0  0  0  0  0  0  0  0  0  0  0  0
   20.5355   19.3096   24.5461 C   0  0  0  0  0  0  0  0  0  0  0  0
   21.2228   19.6055   25.3515 H   0  0  0  0  0  0  0  0  0  0  0  0
   20.1990   20.6049   23.7612 C   0  0  0  0  0  0  0  0  0  0  0  0
   19.7794   21.3121   24.4889 H   0  0  0  0  0  0  0  0  0  0  0  0
   21.1237   21.0801   23.4119 H   0  0  0  0  0  0  0  0  0  0  0  0
   19.1807   20.4710   22.5941 C   0  0  0  0  0  0  0  0  0  0  0  0
   18.5119   19.6181   22.7465 H   0  0  0  0  0  0  0  0  0  0  0  0
   18.5159   21.3452   22.6221 H   0  0  0  0  0  0  0  0  0  0  0  0
   19.8063   20.4222   21.1770 C   0  0  0  0  0  0  0  0  0  0  0  0
   20.0877   21.4468   20.8980 H   0  0  0  0  0  0  0  0  0  0  0  0
   19.0346   20.1195   20.4564 H   0  0  0  0  0  0  0  0  0  0  0  0
   19.3523   18.8024   25.1488 O   0  0  0  0  0  0  0  0  0  0  0  0
   18.7673   18.5505   24.4081 H   0  0  0  0  0  0  0  0  0  0  0  0
  1  2  1  0  0  0  0
  1  3  1  0  0  0  0
  1  4  1  0  0  0  0
  4  5  1  0  0  0  0
  4  6  1  0  0  0  0
  4  7  1  0  0  0  0
  7  8  1  0  0  0  0
  7  9  1  0  0  0  0
  7 10  1  0  0  0  0
 10 11  1  0  0  0  0
 10 12  1  0  0  0  0
 10 13  1  0  0  0  0
 13 14  1  0  0  0  0
 13 15  1  0  0  0  0
 15 16  1  0  0  0  0
 15 17  1  0  0  0  0
 15 18  1  0  0  0  0
 18 19  1  0  0  0  0
 18 20  1  0  0  0  0
  1 21  1  0  0  0  0
 18 21  1  0  0  0  0
 21 22  1  0  0  0  0
 21 23  1  0  0  0  0
 13 24  1  0  0  0  0
 24 25  1  0  0  0  0
M  END
> <VM2 Rank>
21

> <Conf_Id>
535

> <Probability>
1.91

> <Sum Probability>
66.42

> <Delta G>
0.537

> <G>
62.613

> <E>
29.810

> <-TS>
32.803

> <U+W>
9.243

> <U>
10.674

> <W>
-1.432

> <W(PB)>
-3.549

> <W(SA)>
2.118

> <Valence>
17.246

> <Coulomb>
-9.242

> <VdW>
2.671

> <VdW6>
-13.410

> <VdW12>
16.081

> <Bond>
0.483

> <Angle>
6.110

> <Pdih>
10.652

> <Idih>
0.000

> <Tether>
0.000

$$$$
VeraChem MOL file


 25 25  0  0  0  0  0  0  0  0999 V2000     
   20.1460   19.0639   20.7502 C   0  0  0  0  0  0  0  0  0  0  0  0
   20.2767   19.0883   19.6597 H   0  0  0  0  0  0  0  0  0  0  0  0
   19.2901   18.3984   20.9208 H   0  0  0  0  0  0  0  0  0  0  0  0
   21.4436   18.4754   21.3622 C   0  0  0  0  0  0  0  0  0  0  0  0
   21.9811   17.9358   20.5703 H   0  0  0  0  0  0  0  0  0  0  0  0
   22.1276   19.2789   21.6579 H   0  0  0  0  0  0  0  0  0  0  0  0
   21.2317   17.4787   22.5305 C   0  0  0  0  0  0  0  0  0  0  0  0
   22.1965   17.2953   23.0225 H   0  0  0  0  0  0  0  0  0  0  0  0
   20.9312   16.5147   22.0979 H   0  0  0  0  0  0  0  0  0  0  0  0
   20.1737   17.8563   23.5996 C   0  0  0  0  0  0  0  0  0  0  0  0
   19.1828   17.9447   23.1414 H   0  0  0  0  0  0  0  0  0  0  0  0
   20.0889   17.0040   24.2864 H   0  0  0  0  0  0  0  0  0  0  0  0
   20.4772   19.1064   24.4586 C   0  0  0  0  0  0  0  0  0  0  0  0
   21.4537   18.9590   24.9421 H   0  0  0  0  0  0  0  0  0  0  0  0
   20.5156   20.4666   23.7162 C   0  0  0  0  0  0  0  0  0  0  0  0
   20.4571   21.2612   24.4715 H   0  0  0  0  0  0  0  0  0  0  0  0
   21.4965   20.6122   23.2520 H   0  0  0  0  0  0  0  0  0  0  0  0
   19.3861   20.7031   22.6772 C   0  0  0  0  0  0  0  0  0  0  0  0
   19.0511   21.7438   22.7834 H   0  0  0  0  0  0  0  0  0  0  0  0
   18.5028   20.0937   22.9085 H   0  0  0  0  0  0  0  0  0  0  0  0
   19.8148   20.5115   21.1989 C   0  0  0  0  0  0  0  0  0  0  0  0
   20.6704   21.1649   20.9804 H   0  0  0  0  0  0  0  0  0  0  0  0
   18.9960   20.8777   20.5647 H   0  0  0  0  0  0  0  0  0  0  0  0
   19.4753   19.1810   25.4666 O   0  0  0  0  0  0  0  0  0  0  0  0
   19.6845   19.9649   26.0152 H   0  0  0  0  0  0  0  0  0  0  0  0
  1  2  1  0  0  0  0
  1  3  1  0  0  0  0
  1  4  1  0  0  0  0
  4  5  1  0  0  0  0
  4  6  1  0  0  0  0
  4  7  1  0  0  0  0
  7  8  1  0  0  0  0
  7  9  1  0  0  0  0
  7 10  1  0  0  0  0
 10 11  1  0  0  0  0
 10 12  1  0  0  0  0
 10 13  1  0  0  0  0
 13 14  1  0  0  0  0
 13 15  1  0  0  0  0
 15 16  1  0  0  0  0
 15 17  1  0  0  0  0
 15 18  1  0  0  0  0
 18 19  1  0  0  0  0
 18 20  1  0  0  0  0
  1 21  1  0  0  0  0
 18 21  1  0  0  0  0
 21 22  1  0  0  0  0
 21 23  1  0  0  0  0
 13 24  1  0  0  0  0
 24 25  1  0  0  0  0
M  END
> <VM2 Rank>
22

> <Conf_Id>
1177

> <Probability>
1.90

> <Sum Probability>
68.32

> <Delta G>
0.538

> <G>
62.614

> <E>
29.895

> <-TS>
32.719

> <U+W>
9.327

> <U>
11.545

> <W>
-2.217

> <W(PB)>
-4.342

> <W(SA)>
2.124

> <Valence>
16.814

> <Coulomb>
-7.999

> <VdW>
2.729

> <VdW6>
-12.749

> <VdW12>
15.478

> <Bond>
0.438

> <Angle>
5.318

> <Pdih>
11.059

> <Idih>
0.000

> <Tether>
0.000

$$$$
VeraChem MOL file


 25 25  0  0  0  0  0  0  0  0999 V2000     
   20.7639   19.2464   20.7978 C   0  0  0  0  0  0  0  0  0  0  0  0
   21.8241   19.4332   21.0117 H   0  0  0  0  0  0  0  0  0  0  0  0
   20.7161   19.0769   19.7135 H   0  0  0  0  0  0  0  0  0  0  0  0
   20.2717   17.9516   21.4945 C   0  0  0  0  0  0  0  0  0  0  0  0
   19.2065   18.0281   21.7410 H   0  0  0  0  0  0  0  0  0  0  0  0
   20.3285   17.1284   20.7692 H   0  0  0  0  0  0  0  0  0  0  0  0
   21.0870   17.5217   22.7401 C   0  0  0  0  0  0  0  0  0  0  0  0
   22.0221   17.0647   22.3890 H   0  0  0  0  0  0  0  0  0  0  0  0
   20.5433   16.7219   23.2608 H   0  0  0  0  0  0  0  0  0  0  0  0
   21.4637   18.6356   23.7535 C   0  0  0  0  0  0  0  0  0  0  0  0
   22.1090   18.1827   24.5172 H   0  0  0  0  0  0  0  0  0  0  0  0
   22.1022   19.3812   23.2678 H   0  0  0  0  0  0  0  0  0  0  0  0
   20.3025   19.3469   24.4922 C   0  0  0  0  0  0  0  0  0  0  0  0
   20.7675   20.0454   25.2028 H   0  0  0  0  0  0  0  0  0  0  0  0
   19.3268   20.1768   23.6232 C   0  0  0  0  0  0  0  0  0  0  0  0
   18.5626   19.5315   23.1767 H   0  0  0  0  0  0  0  0  0  0  0  0
   18.7720   20.8290   24.3102 H   0  0  0  0  0  0  0  0  0  0  0  0
   19.9857   21.0727   22.5399 C   0  0  0  0  0  0  0  0  0  0  0  0
   21.0205   21.3226   22.8068 H   0  0  0  0  0  0  0  0  0  0  0  0
   19.4513   22.0325   22.5355 H   0  0  0  0  0  0  0  0  0  0  0  0
   19.9119   20.5073   21.0975 C   0  0  0  0  0  0  0  0  0  0  0  0
   20.2379   21.3008   20.4113 H   0  0  0  0  0  0  0  0  0  0  0  0
   18.8632   20.3074   20.8384 H   0  0  0  0  0  0  0  0  0  0  0  0
   19.5508   18.3840   25.2212 O   0  0  0  0  0  0  0  0  0  0  0  0
   20.1967   17.8505   25.7278 H   0  0  0  0  0  0  0  0  0  0  0  0
  1  2  1  0  0  0  0
  1  3  1  0  0  0  0
  1  4  1  0  0  0  0
  4  5  1  0  0  0  0
  4  6  1  0  0  0  0
  4  7  1  0  0  0  0
  7  8  1  0  0  0  0
  7  9  1  0  0  0  0
  7 10  1  0  0  0  0
 10 11  1  0  0  0  0
 10 12  1  0  0  0  0
 10 13  1  0  0  0  0
 13 14  1  0  0  0  0
 13 15  1  0  0  0  0
 15 16  1  0  0  0  0
 15 17  1  0  0  0  0
 15 18  1  0  0  0  0
 18 19  1  0  0  0  0
 18 20  1  0  0  0  0
  1 21  1  0  0  0  0
 18 21  1  0  0  0  0
 21 22  1  0  0  0  0
 21 23  1  0  0  0  0
 13 24  1  0  0  0  0
 24 25  1  0  0  0  0
M  END
> <VM2 Rank>
23

> <Conf_Id>
1854

> <Probability>
1.62

> <Sum Probability>
69.94

> <Delta G>
0.635

> <G>
62.710

> <E>
30.025

> <-TS>
32.685

> <U+W>
9.457

> <U>
11.668

> <W>
-2.211

> <W(PB)>
-4.346

> <W(SA)>
2.135

> <Valence>
16.811

> <Coulomb>
-7.706

> <VdW>
2.563

> <VdW6>
-12.921

> <VdW12>
15.484

> <Bond>
0.437

> <Angle>
5.466

> <Pdih>
10.908

> <Idih>
0.000

> <Tether>
0.000

$$$$
VeraChem MOL file


 25 25  0  0  0  0  0  0  0  0999 V2000     
   20.6597   19.5003   20.7976 C   0  0  0  0  0  0  0  0  0  0  0  0
   21.5355   20.1262   21.0112 H   0  0  0  0  0  0  0  0  0  0  0  0
   20.5082   19.5805   19.7124 H   0  0  0  0  0  0  0  0  0  0  0  0
   20.9604   18.0101   21.1045 C   0  0  0  0  0  0  0  0  0  0  0  0
   20.0833   17.4014   20.8456 H   0  0  0  0  0  0  0  0  0  0  0  0
   21.7566   17.6832   20.4219 H   0  0  0  0  0  0  0  0  0  0  0  0
   21.4111   17.6725   22.5496 C   0  0  0  0  0  0  0  0  0  0  0  0
   22.3142   18.2362   22.8167 H   0  0  0  0  0  0  0  0  0  0  0  0
   21.7208   16.6184   22.5506 H   0  0  0  0  0  0  0  0  0  0  0  0
   20.3074   17.8354   23.6292 C   0  0  0  0  0  0  0  0  0  0  0  0
   19.3126   17.7411   23.1802 H   0  0  0  0  0  0  0  0  0  0  0  0
   20.3814   16.9856   24.3200 H   0  0  0  0  0  0  0  0  0  0  0  0
   20.3972   19.1168   24.4929 C   0  0  0  0  0  0  0  0  0  0  0  0
   21.2193   18.9616   25.2065 H   0  0  0  0  0  0  0  0  0  0  0  0
   20.7064   20.4403   23.7494 C   0  0  0  0  0  0  0  0  0  0  0  0
   20.8338   21.2212   24.5101 H   0  0  0  0  0  0  0  0  0  0  0  0
   21.6871   20.3706   23.2668 H   0  0  0  0  0  0  0  0  0  0  0  0
   19.6510   20.9483   22.7308 C   0  0  0  0  0  0  0  0  0  0  0  0
   19.9818   21.9339   22.3764 H   0  0  0  0  0  0  0  0  0  0  0  0
   18.6980   21.1238   23.2481 H   0  0  0  0  0  0  0  0  0  0  0  0
   19.3893   20.0602   21.4882 C   0  0  0  0  0  0  0  0  0  0  0  0
   18.8443   20.6748   20.7588 H   0  0  0  0  0  0  0  0  0  0  0  0
   18.6963   19.2482   21.7363 H   0  0  0  0  0  0  0  0  0  0  0  0
   19.1815   19.2591   25.2178 O   0  0  0  0  0  0  0  0  0  0  0  0
   19.2526   20.0959   25.7210 H   0  0  0  0  0  0  0  0  0  0  0  0
  1  2  1  0  0  0  0
  1  3  1  0  0  0  0
  1  4  1  0  0  0  0
  4  5  1  0  0  0  0
  4  6  1  0  0  0  0
  4  7  1  0  0  0  0
  7  8  1  0  0  0  0
  7  9  1  0  0  0  0
  7 10  1  0  0  0  0
 10 11  1  0  0  0  0
 10 12  1  0  0  0  0
 10 13  1  0  0  0  0
 13 14  1  0  0  0  0
 13 15  1  0  0  0  0
 15 16  1  0  0  0  0
 15 17  1  0  0  0  0
 15 18  1  0  0  0  0
 18 19  1  0  0  0  0
 18 20  1  0  0  0  0
  1 21  1  0  0  0  0
 18 21  1  0  0  0  0
 21 22  1  0  0  0  0
 21 23  1  0  0  0  0
 13 24  1  0  0  0  0
 24 25  1  0  0  0  0
M  END
> <VM2 Rank>
24

> <Conf_Id>
744

> <Probability>
1.58

> <Sum Probability>
71.52

> <Delta G>
0.648

> <G>
62.723

> <E>
30.035

> <-TS>
32.688

> <U+W>
9.467

> <U>
11.668

> <W>
-2.201

> <W(PB)>
-4.334

> <W(SA)>
2.133

> <Valence>
16.811

> <Coulomb>
-7.706

> <VdW>
2.563

> <VdW6>
-12.922

> <VdW12>
15.484

> <Bond>
0.437

> <Angle>
5.466

> <Pdih>
10.908

> <Idih>
0.000

> <Tether>
0.000

$$$$
VeraChem MOL file


 25 25  0  0  0  0  0  0  0  0999 V2000     
   20.1523   19.0655   20.7476 C   0  0  0  0  0  0  0  0  0  0  0  0
   20.2897   19.0911   19.6580 H   0  0  0  0  0  0  0  0  0  0  0  0
   19.2963   18.3986   20.9125 H   0  0  0  0  0  0  0  0  0  0  0  0
   21.4468   18.4786   21.3674 C   0  0  0  0  0  0  0  0  0  0  0  0
   21.9925   17.9439   20.5779 H   0  0  0  0  0  0  0  0  0  0  0  0
   22.1255   19.2828   21.6731 H   0  0  0  0  0  0  0  0  0  0  0  0
   21.2266   17.4768   22.5294 C   0  0  0  0  0  0  0  0  0  0  0  0
   22.1894   17.2861   23.0227 H   0  0  0  0  0  0  0  0  0  0  0  0
   20.9224   16.5165   22.0910 H   0  0  0  0  0  0  0  0  0  0  0  0
   20.1684   17.8557   23.5976 C   0  0  0  0  0  0  0  0  0  0  0  0
   19.1792   17.9487   23.1364 H   0  0  0  0  0  0  0  0  0  0  0  0
   20.0813   16.9991   24.2786 H   0  0  0  0  0  0  0  0  0  0  0  0
   20.4776   19.1054   24.4562 C   0  0  0  0  0  0  0  0  0  0  0  0
   21.4591   18.9613   24.9303 H   0  0  0  0  0  0  0  0  0  0  0  0
   20.5072   20.4677   23.7173 C   0  0  0  0  0  0  0  0  0  0  0  0
   20.4324   21.2535   24.4808 H   0  0  0  0  0  0  0  0  0  0  0  0
   21.4901   20.6276   23.2621 H   0  0  0  0  0  0  0  0  0  0  0  0
   19.3818   20.7013   22.6730 C   0  0  0  0  0  0  0  0  0  0  0  0
   19.0448   21.7414   22.7785 H   0  0  0  0  0  0  0  0  0  0  0  0
   18.4985   20.0912   22.9018 H   0  0  0  0  0  0  0  0  0  0  0  0
   19.8165   20.5117   21.1962 C   0  0  0  0  0  0  0  0  0  0  0  0
   20.6717   21.1669   20.9818 H   0  0  0  0  0  0  0  0  0  0  0  0
   18.9996   20.8771   20.5590 H   0  0  0  0  0  0  0  0  0  0  0  0
   19.4868   19.1803   25.4753 O   0  0  0  0  0  0  0  0  0  0  0  0
   19.5254   18.3359   25.9700 H   0  0  0  0  0  0  0  0  0  0  0  0
  1  2  1  0  0  0  0
  1  3  1  0  0  0  0
  1  4  1  0  0  0  0
  4  5  1  0  0  0  0
  4  6  1  0  0  0  0
  4  7  1  0  0  0  0
  7  8  1  0  0  0  0
  7  9  1  0  0  0  0
  7 10  1  0  0  0  0
 10 11  1  0  0  0  0
 10 12  1  0  0  0  0
 10 13  1  0  0  0  0
 13 14  1  0  0  0  0
 13 15  1  0  0  0  0
 15 16  1  0  0  0  0
 15 17  1  0  0  0  0
 15 18  1  0  0  0  0
 18 19  1  0  0  0  0
 18 20  1  0  0  0  0
  1 21  1  0  0  0  0
 18 21  1  0  0  0  0
 21 22  1  0  0  0  0
 21 23  1  0  0  0  0
 13 24  1  0  0  0  0
 24 25  1  0  0  0  0
M  END
> <VM2 Rank>
25

> <Conf_Id>
1657

> <Probability>
1.55

> <Sum Probability>
73.07

> <Delta G>
0.661

> <G>
62.736

> <E>
29.993

> <-TS>
32.743

> <U+W>
9.425

> <U>
11.687

> <W>
-2.262

> <W(PB)>
-4.388

> <W(SA)>
2.126

> <Valence>
16.789

> <Coulomb>
-7.836

> <VdW>
2.734

> <VdW6>
-12.729

> <VdW12>
15.463

> <Bond>
0.436

> <Angle>
5.314

> <Pdih>
11.039

> <Idih>
0.000

> <Tether>
0.000

$$$$
VeraChem MOL file


 25 25  0  0  0  0  0  0  0  0999 V2000     
   20.0789   19.1699   20.7496 C   0  0  0  0  0  0  0  0  0  0  0  0
   19.0095   18.9964   20.9252 H   0  0  0  0  0  0  0  0  0  0  0  0
   20.1821   19.2410   19.6582 H   0  0  0  0  0  0  0  0  0  0  0  0
   20.9162   17.9464   21.2052 C   0  0  0  0  0  0  0  0  0  0  0  0
   20.6246   17.0915   20.5801 H   0  0  0  0  0  0  0  0  0  0  0  0
   21.9762   18.1268   20.9802 H   0  0  0  0  0  0  0  0  0  0  0  0
   20.7723   17.5154   22.6883 C   0  0  0  0  0  0  0  0  0  0  0  0
   21.3078   16.5630   22.8003 H   0  0  0  0  0  0  0  0  0  0  0  0
   19.7265   17.2840   22.9282 H   0  0  0  0  0  0  0  0  0  0  0  0
   21.3735   18.5119   23.7165 C   0  0  0  0  0  0  0  0  0  0  0  0
   21.9057   17.9321   24.4823 H   0  0  0  0  0  0  0  0  0  0  0  0
   22.1544   19.1196   23.2480 H   0  0  0  0  0  0  0  0  0  0  0  0
   20.3593   19.4236   24.4534 C   0  0  0  0  0  0  0  0  0  0  0  0
   20.9238   20.2473   24.9136 H   0  0  0  0  0  0  0  0  0  0  0  0
   19.2250   20.0356   23.5969 C   0  0  0  0  0  0  0  0  0  0  0  0
   18.6178   19.2411   23.1496 H   0  0  0  0  0  0  0  0  0  0  0  0
   18.5426   20.5611   24.2776 H   0  0  0  0  0  0  0  0  0  0  0  0
   19.6568   21.0575   22.5136 C   0  0  0  0  0  0  0  0  0  0  0  0
   18.7417   21.4813   22.0778 H   0  0  0  0  0  0  0  0  0  0  0  0
   20.1746   21.8992   22.9932 H   0  0  0  0  0  0  0  0  0  0  0  0
   20.5321   20.5256   21.3504 C   0  0  0  0  0  0  0  0  0  0  0  0
   21.5858   20.4811   21.6480 H   0  0  0  0  0  0  0  0  0  0  0  0
   20.5038   21.2803   20.5524 H   0  0  0  0  0  0  0  0  0  0  0  0
   19.7498   18.6570   25.4862 O   0  0  0  0  0  0  0  0  0  0  0  0
   19.1603   19.2644   25.9790 H   0  0  0  0  0  0  0  0  0  0  0  0
  1  2  1  0  0  0  0
  1  3  1  0  0  0  0
  1  4  1  0  0  0  0
  4  5  1  0  0  0  0
  4  6  1  0  0  0  0
  4  7  1  0  0  0  0
  7  8  1  0  0  0  0
  7  9  1  0  0  0  0
  7 10  1  0  0  0  0
 10 11  1  0  0  0  0
 10 12  1  0  0  0  0
 10 13  1  0  0  0  0
 13 14  1  0  0  0  0
 13 15  1  0  0  0  0
 15 16  1  0  0  0  0
 15 17  1  0  0  0  0
 15 18  1  0  0  0  0
 18 19  1  0  0  0  0
 18 20  1  0  0  0  0
  1 21  1  0  0  0  0
 18 21  1  0  0  0  0
 21 22  1  0  0  0  0
 21 23  1  0  0  0  0
 13 24  1  0  0  0  0
 24 25  1  0  0  0  0
M  END
> <VM2 Rank>
26

> <Conf_Id>
1224

> <Probability>
1.46

> <Sum Probability>
74.53

> <Delta G>
0.696

> <G>
62.771

> <E>
30.029

> <-TS>
32.742

> <U+W>
9.462

> <U>
11.687

> <W>
-2.226

> <W(PB)>
-4.373

> <W(SA)>
2.147

> <Valence>
16.789

> <Coulomb>
-7.836

> <VdW>
2.734

> <VdW6>
-12.729

> <VdW12>
15.463

> <Bond>
0.436

> <Angle>
5.314

> <Pdih>
11.039

> <Idih>
0.000

> <Tether>
0.000

$$$$
VeraChem MOL file


 25 25  0  0  0  0  0  0  0  0999 V2000     
   21.0555   19.5130   21.0070 C   0  0  0  0  0  0  0  0  0  0  0  0
   21.3653   19.7416   19.9779 H   0  0  0  0  0  0  0  0  0  0  0  0
   21.8451   19.9315   21.6446 H   0  0  0  0  0  0  0  0  0  0  0  0
   21.0115   17.9715   21.1414 C   0  0  0  0  0  0  0  0  0  0  0  0
   20.0886   17.5817   20.6907 H   0  0  0  0  0  0  0  0  0  0  0  0
   21.8311   17.5545   20.5402 H   0  0  0  0  0  0  0  0  0  0  0  0
   21.1678   17.4246   22.5806 C   0  0  0  0  0  0  0  0  0  0  0  0
   22.1626   17.6759   22.9731 H   0  0  0  0  0  0  0  0  0  0  0  0
   21.1400   16.3278   22.5229 H   0  0  0  0  0  0  0  0  0  0  0  0
   20.0729   17.8831   23.5728 C   0  0  0  0  0  0  0  0  0  0  0  0
   19.0952   17.8744   23.0753 H   0  0  0  0  0  0  0  0  0  0  0  0
   19.9989   17.1236   24.3628 H   0  0  0  0  0  0  0  0  0  0  0  0
   20.3575   19.2636   24.2219 C   0  0  0  0  0  0  0  0  0  0  0  0
   21.3589   19.6116   23.9324 H   0  0  0  0  0  0  0  0  0  0  0  0
   19.3319   20.3526   23.8349 C   0  0  0  0  0  0  0  0  0  0  0  0
   18.3245   19.9194   23.7901 H   0  0  0  0  0  0  0  0  0  0  0  0
   19.2976   21.1007   24.6384 H   0  0  0  0  0  0  0  0  0  0  0  0
   19.6442   21.1033   22.5167 C   0  0  0  0  0  0  0  0  0  0  0  0
   20.5823   21.6656   22.6190 H   0  0  0  0  0  0  0  0  0  0  0  0
   18.8604   21.8599   22.3743 H   0  0  0  0  0  0  0  0  0  0  0  0
   19.6936   20.2188   21.2478 C   0  0  0  0  0  0  0  0  0  0  0  0
   19.5055   20.8733   20.3856 H   0  0  0  0  0  0  0  0  0  0  0  0
   18.8636   19.4999   21.2509 H   0  0  0  0  0  0  0  0  0  0  0  0
   20.3292   19.1127   25.6368 O   0  0  0  0  0  0  0  0  0  0  0  0
   21.0269   18.4625   25.8627 H   0  0  0  0  0  0  0  0  0  0  0  0
  1  2  1  0  0  0  0
  1  3  1  0  0  0  0
  1  4  1  0  0  0  0
  4  5  1  0  0  0  0
  4  6  1  0  0  0  0
  4  7  1  0  0  0  0
  7  8  1  0  0  0  0
  7  9  1  0  0  0  0
  7 10  1  0  0  0  0
 10 11  1  0  0  0  0
 10 12  1  0  0  0  0
 10 13  1  0  0  0  0
 13 14  1  0  0  0  0
 13 15  1  0  0  0  0
 15 16  1  0  0  0  0
 15 17  1  0  0  0  0
 15 18  1  0  0  0  0
 18 19  1  0  0  0  0
 18 20  1  0  0  0  0
  1 21  1  0  0  0  0
 18 21  1  0  0  0  0
 21 22  1  0  0  0  0
 21 23  1  0  0  0  0
 13 24  1  0  0  0  0
 24 25  1  0  0  0  0
M  END
> <VM2 Rank>
27

> <Conf_Id>
2011

> <Probability>
1.44

> <Sum Probability>
75.98

> <Delta G>
0.703

> <G>
62.778

> <E>
30.568

> <-TS>
32.210

> <U+W>
10.000

> <U>
12.140

> <W>
-2.139

> <W(PB)>
-4.284

> <W(SA)>
2.144

> <Valence>
18.247

> <Coulomb>
-8.720

> <VdW>
2.612

> <VdW6>
-11.959

> <VdW12>
14.571

> <Bond>
0.338

> <Angle>
3.150

> <Pdih>
14.759

> <Idih>
0.000

> <Tether>
0.000

$$$$
VeraChem MOL file


 25 25  0  0  0  0  0  0  0  0999 V2000     
   21.2760   19.6161   21.1378 C   0  0  0  0  0  0  0  0  0  0  0  0
   21.9311   19.8947   21.9709 H   0  0  0  0  0  0  0  0  0  0  0  0
   21.8557   19.8596   20.2371 H   0  0  0  0  0  0  0  0  0  0  0  0
   21.0337   18.0860   21.1289 C   0  0  0  0  0  0  0  0  0  0  0  0
   20.4647   17.8140   20.2296 H   0  0  0  0  0  0  0  0  0  0  0  0
   22.0123   17.5988   21.0196 H   0  0  0  0  0  0  0  0  0  0  0  0
   20.3357   17.4737   22.3701 C   0  0  0  0  0  0  0  0  0  0  0  0
   20.5097   16.3894   22.3375 H   0  0  0  0  0  0  0  0  0  0  0  0
   19.2477   17.5790   22.2910 H   0  0  0  0  0  0  0  0  0  0  0  0
   20.8357   18.0038   23.7404 C   0  0  0  0  0  0  0  0  0  0  0  0
   20.9009   17.1427   24.4191 H   0  0  0  0  0  0  0  0  0  0  0  0
   21.8593   18.3895   23.6624 H   0  0  0  0  0  0  0  0  0  0  0  0
   19.9058   19.0426   24.4162 C   0  0  0  0  0  0  0  0  0  0  0  0
   18.8944   18.6149   24.4671 H   0  0  0  0  0  0  0  0  0  0  0  0
   19.8090   20.4313   23.7359 C   0  0  0  0  0  0  0  0  0  0  0  0
   19.2357   21.0800   24.4118 H   0  0  0  0  0  0  0  0  0  0  0  0
   20.7989   20.8969   23.6577 H   0  0  0  0  0  0  0  0  0  0  0  0
   19.0822   20.4375   22.3646 C   0  0  0  0  0  0  0  0  0  0  0  0
   18.4255   21.3175   22.3284 H   0  0  0  0  0  0  0  0  0  0  0  0
   18.4000   19.5832   22.2873 H   0  0  0  0  0  0  0  0  0  0  0  0
   20.0094   20.5079   21.1244 C   0  0  0  0  0  0  0  0  0  0  0  0
   20.3416   21.5491   21.0123 H   0  0  0  0  0  0  0  0  0  0  0  0
   19.4191   20.2863   20.2250 H   0  0  0  0  0  0  0  0  0  0  0  0
   20.3766   19.2442   25.7417 O   0  0  0  0  0  0  0  0  0  0  0  0
   21.2753   19.6242   25.6608 H   0  0  0  0  0  0  0  0  0  0  0  0
  1  2  1  0  0  0  0
  1  3  1  0  0  0  0
  1  4  1  0  0  0  0
  4  5  1  0  0  0  0
  4  6  1  0  0  0  0
  4  7  1  0  0  0  0
  7  8  1  0  0  0  0
  7  9  1  0  0  0  0
  7 10  1  0  0  0  0
 10 11  1  0  0  0  0
 10 12  1  0  0  0  0
 10 13  1  0  0  0  0
 13 14  1  0  0  0  0
 13 15  1  0  0  0  0
 15 16  1  0  0  0  0
 15 17  1  0  0  0  0
 15 18  1  0  0  0  0
 18 19  1  0  0  0  0
 18 20  1  0  0  0  0
  1 21  1  0  0  0  0
 18 21  1  0  0  0  0
 21 22  1  0  0  0  0
 21 23  1  0  0  0  0
 13 24  1  0  0  0  0
 24 25  1  0  0  0  0
M  END
> <VM2 Rank>
28

> <Conf_Id>
600

> <Probability>
1.38

> <Sum Probability>
77.36

> <Delta G>
0.728

> <G>
62.804

> <E>
30.161

> <-TS>
32.642

> <U+W>
9.594

> <U>
11.413

> <W>
-1.819

> <W(PB)>
-3.929

> <W(SA)>
2.110

> <Valence>
17.496

> <Coulomb>
-8.736

> <VdW>
2.653

> <VdW6>
-12.485

> <VdW12>
15.138

> <Bond>
0.414

> <Angle>
5.295

> <Pdih>
11.787

> <Idih>
0.000

> <Tether>
0.000

$$$$
VeraChem MOL file


 25 25  0  0  0  0  0  0  0  0999 V2000     
   19.7064   18.9908   20.9358 C   0  0  0  0  0  0  0  0  0  0  0  0
   18.8759   18.6777   21.5787 H   0  0  0  0  0  0  0  0  0  0  0  0
   19.3309   18.8536   19.9126 H   0  0  0  0  0  0  0  0  0  0  0  0
   20.9156   18.0390   21.1135 C   0  0  0  0  0  0  0  0  0  0  0  0
   20.5827   17.0292   20.8372 H   0  0  0  0  0  0  0  0  0  0  0  0
   21.6955   18.3037   20.3868 H   0  0  0  0  0  0  0  0  0  0  0  0
   21.5501   17.9589   22.5255 C   0  0  0  0  0  0  0  0  0  0  0  0
   22.2584   18.7814   22.6762 H   0  0  0  0  0  0  0  0  0  0  0  0
   22.1718   17.0534   22.5500 H   0  0  0  0  0  0  0  0  0  0  0  0
   20.5411   17.8863   23.7028 C   0  0  0  0  0  0  0  0  0  0  0  0
   19.5753   17.4861   23.3706 H   0  0  0  0  0  0  0  0  0  0  0  0
   20.9293   17.1488   24.4174 H   0  0  0  0  0  0  0  0  0  0  0  0
   20.3416   19.2155   24.4741 C   0  0  0  0  0  0  0  0  0  0  0  0
   21.3297   19.5868   24.7820 H   0  0  0  0  0  0  0  0  0  0  0  0
   19.6166   20.3522   23.7112 C   0  0  0  0  0  0  0  0  0  0  0  0
   18.6240   20.0221   23.3818 H   0  0  0  0  0  0  0  0  0  0  0  0
   19.4275   21.1543   24.4370 H   0  0  0  0  0  0  0  0  0  0  0  0
   20.4206   20.9708   22.5362 C   0  0  0  0  0  0  0  0  0  0  0  0
   21.4957   20.8183   22.6841 H   0  0  0  0  0  0  0  0  0  0  0  0
   20.2909   22.0612   22.5687 H   0  0  0  0  0  0  0  0  0  0  0  0
   19.9935   20.5016   21.1219 C   0  0  0  0  0  0  0  0  0  0  0  0
   19.0788   21.0459   20.8499 H   0  0  0  0  0  0  0  0  0  0  0  0
   20.7545   20.8187   20.3961 H   0  0  0  0  0  0  0  0  0  0  0  0
   19.5785   18.9279   25.6391 O   0  0  0  0  0  0  0  0  0  0  0  0
   20.0802   18.2573   26.1478 H   0  0  0  0  0  0  0  0  0  0  0  0
  1  2  1  0  0  0  0
  1  3  1  0  0  0  0
  1  4  1  0  0  0  0
  4  5  1  0  0  0  0
  4  6  1  0  0  0  0
  4  7  1  0  0  0  0
  7  8  1  0  0  0  0
  7  9  1  0  0  0  0
  7 10  1  0  0  0  0
 10 11  1  0  0  0  0
 10 12  1  0  0  0  0
 10 13  1  0  0  0  0
 13 14  1  0  0  0  0
 13 15  1  0  0  0  0
 15 16  1  0  0  0  0
 15 17  1  0  0  0  0
 15 18  1  0  0  0  0
 18 19  1  0  0  0  0
 18 20  1  0  0  0  0
  1 21  1  0  0  0  0
 18 21  1  0  0  0  0
 21 22  1  0  0  0  0
 21 23  1  0  0  0  0
 13 24  1  0  0  0  0
 24 25  1  0  0  0  0
M  END
> <VM2 Rank>
29

> <Conf_Id>
1971

> <Probability>
1.28

> <Sum Probability>
78.64

> <Delta G>
0.777

> <G>
62.852

> <E>
30.198

> <-TS>
32.655

> <U+W>
9.630

> <U>
11.876

> <W>
-2.246

> <W(PB)>
-4.376

> <W(SA)>
2.130

> <Valence>
17.153

> <Coulomb>
-7.966

> <VdW>
2.689

> <VdW6>
-12.458

> <VdW12>
15.147

> <Bond>
0.421

> <Angle>
5.257

> <Pdih>
11.475

> <Idih>
0.000

> <Tether>
0.000

$$$$
VeraChem MOL file


 25 25  0  0  0  0  0  0  0  0999 V2000     
   21.0733   19.5153   21.0148 C   0  0  0  0  0  0  0  0  0  0  0  0
   21.9245   19.7667   21.6611 H   0  0  0  0  0  0  0  0  0  0  0  0
   21.4650   19.5684   19.9896 H   0  0  0  0  0  0  0  0  0  0  0  0
   20.5888   18.0590   21.2501 C   0  0  0  0  0  0  0  0  0  0  0  0
   19.4927   17.9941   21.2422 H   0  0  0  0  0  0  0  0  0  0  0  0
   20.9197   17.4596   20.3908 H   0  0  0  0  0  0  0  0  0  0  0  0
   21.1583   17.3907   22.5244 C   0  0  0  0  0  0  0  0  0  0  0  0
   22.2214   17.6431   22.6374 H   0  0  0  0  0  0  0  0  0  0  0  0
   21.1269   16.3019   22.3811 H   0  0  0  0  0  0  0  0  0  0  0  0
   20.3975   17.7095   23.8353 C   0  0  0  0  0  0  0  0  0  0  0  0
   19.3744   17.3163   23.7800 H   0  0  0  0  0  0  0  0  0  0  0  0
   20.8872   17.1495   24.6433 H   0  0  0  0  0  0  0  0  0  0  0  0
   20.3676   19.2050   24.2227 C   0  0  0  0  0  0  0  0  0  0  0  0
   21.3302   19.6551   23.9430 H   0  0  0  0  0  0  0  0  0  0  0  0
   19.2065   19.9949   23.5624 C   0  0  0  0  0  0  0  0  0  0  0  0
   18.5054   19.3187   23.0576 H   0  0  0  0  0  0  0  0  0  0  0  0
   18.6154   20.4866   24.3468 H   0  0  0  0  0  0  0  0  0  0  0  0
   19.6800   21.0880   22.5754 C   0  0  0  0  0  0  0  0  0  0  0  0
   20.5636   21.6026   22.9769 H   0  0  0  0  0  0  0  0  0  0  0  0
   18.8949   21.8538   22.5102 H   0  0  0  0  0  0  0  0  0  0  0  0
   19.9642   20.5880   21.1386 C   0  0  0  0  0  0  0  0  0  0  0  0
   20.2658   21.4591   20.5409 H   0  0  0  0  0  0  0  0  0  0  0  0
   19.0360   20.2229   20.6785 H   0  0  0  0  0  0  0  0  0  0  0  0
   20.2279   19.2925   25.6363 O   0  0  0  0  0  0  0  0  0  0  0  0
   20.2712   20.2450   25.8631 H   0  0  0  0  0  0  0  0  0  0  0  0
  1  2  1  0  0  0  0
  1  3  1  0  0  0  0
  1  4  1  0  0  0  0
  4  5  1  0  0  0  0
  4  6  1  0  0  0  0
  4  7  1  0  0  0  0
  7  8  1  0  0  0  0
  7  9  1  0  0  0  0
  7 10  1  0  0  0  0
 10 11  1  0  0  0  0
 10 12  1  0  0  0  0
 10 13  1  0  0  0  0
 13 14  1  0  0  0  0
 13 15  1  0  0  0  0
 15 16  1  0  0  0  0
 15 17  1  0  0  0  0
 15 18  1  0  0  0  0
 18 19  1  0  0  0  0
 18 20  1  0  0  0  0
  1 21  1  0  0  0  0
 18 21  1  0  0  0  0
 21 22  1  0  0  0  0
 21 23  1  0  0  0  0
 13 24  1  0  0  0  0
 24 25  1  0  0  0  0
M  END
> <VM2 Rank>
30

> <Conf_Id>
1927

> <Probability>
1.27

> <Sum Probability>
79.91

> <Delta G>
0.779

> <G>
62.855

> <E>
30.645

> <-TS>
32.210

> <U+W>
10.077

> <U>
12.140

> <W>
-2.063

> <W(PB)>
-4.217

> <W(SA)>
2.155

> <Valence>
18.247

> <Coulomb>
-8.720

> <VdW>
2.612

> <VdW6>
-11.959

> <VdW12>
14.570

> <Bond>
0.338

> <Angle>
3.151

> <Pdih>
14.759

> <Idih>
0.000

> <Tether>
0.000

$$$$
VeraChem MOL file


 25 25  0  0  0  0  0  0  0  0999 V2000     
   21.0535   19.5120   21.0024 C   0  0  0  0  0  0  0  0  0  0  0  0
   21.8466   19.9285   21.6372 H   0  0  0  0  0  0  0  0  0  0  0  0
   21.3608   19.7381   19.9720 H   0  0  0  0  0  0  0  0  0  0  0  0
   21.0039   17.9712   21.1392 C   0  0  0  0  0  0  0  0  0  0  0  0
   20.0763   17.5838   20.6964 H   0  0  0  0  0  0  0  0  0  0  0  0
   21.8175   17.5502   20.5327 H   0  0  0  0  0  0  0  0  0  0  0  0
   21.1700   17.4269   22.5781 C   0  0  0  0  0  0  0  0  0  0  0  0
   22.1657   17.6824   22.9657 H   0  0  0  0  0  0  0  0  0  0  0  0
   21.1466   16.3300   22.5218 H   0  0  0  0  0  0  0  0  0  0  0  0
   20.0799   17.8803   23.5782 C   0  0  0  0  0  0  0  0  0  0  0  0
   19.0966   17.8599   23.0923 H   0  0  0  0  0  0  0  0  0  0  0  0
   20.0255   17.1245   24.3735 H   0  0  0  0  0  0  0  0  0  0  0  0
   20.3580   19.2630   24.2253 C   0  0  0  0  0  0  0  0  0  0  0  0
   21.3616   19.6080   23.9403 H   0  0  0  0  0  0  0  0  0  0  0  0
   19.3311   20.3495   23.8319 C   0  0  0  0  0  0  0  0  0  0  0  0
   18.3262   19.9115   23.7757 H   0  0  0  0  0  0  0  0  0  0  0  0
   19.2818   21.0992   24.6328 H   0  0  0  0  0  0  0  0  0  0  0  0
   19.6508   21.1033   22.5177 C   0  0  0  0  0  0  0  0  0  0  0  0
   20.5920   21.6600   22.6227 H   0  0  0  0  0  0  0  0  0  0  0  0
   18.8715   21.8647   22.3763 H   0  0  0  0  0  0  0  0  0  0  0  0
   19.6951   20.2224   21.2465 C   0  0  0  0  0  0  0  0  0  0  0  0
   19.5086   20.8800   20.3863 H   0  0  0  0  0  0  0  0  0  0  0  0
   18.8624   19.5066   21.2489 H   0  0  0  0  0  0  0  0  0  0  0  0
   20.3217   19.1144   25.6407 O   0  0  0  0  0  0  0  0  0  0  0  0
   20.5714   19.9817   26.0226 H   0  0  0  0  0  0  0  0  0  0  0  0
  1  2  1  0  0  0  0
  1  3  1  0  0  0  0
  1  4  1  0  0  0  0
  4  5  1  0  0  0  0
  4  6  1  0  0  0  0
  4  7  1  0  0  0  0
  7  8  1  0  0  0  0
  7  9  1  0  0  0  0
  7 10  1  0  0  0  0
 10 11  1  0  0  0  0
 10 12  1  0  0  0  0
 10 13  1  0  0  0  0
 13 14  1  0  0  0  0
 13 15  1  0  0  0  0
 15 16  1  0  0  0  0
 15 17  1  0  0  0  0
 15 18  1  0  0  0  0
 18 19  1  0  0  0  0
 18 20  1  0  0  0  0
  1 21  1  0  0  0  0
 18 21  1  0  0  0  0
 21 22  1  0  0  0  0
 21 23  1  0  0  0  0
 13 24  1  0  0  0  0
 24 25  1  0  0  0  0
M  END
> <VM2 Rank>
31

> <Conf_Id>
1171

> <Probability>
1.22

> <Sum Probability>
81.13

> <Delta G>
0.803

> <G>
62.878

> <E>
30.759

> <-TS>
32.119

> <U+W>
10.192

> <U>
12.424

> <W>
-2.232

> <W(PB)>
-4.375

> <W(SA)>
2.143

> <Valence>
18.277

> <Coulomb>
-8.429

> <VdW>
2.575

> <VdW6>
-11.900

> <VdW12>
14.476

> <Bond>
0.331

> <Angle>
3.180

> <Pdih>
14.767

> <Idih>
0.000

> <Tether>
0.000

$$$$
VeraChem MOL file


 25 25  0  0  0  0  0  0  0  0999 V2000     
   21.0709   19.5142   21.0099 C   0  0  0  0  0  0  0  0  0  0  0  0
   21.4588   19.5672   19.9833 H   0  0  0  0  0  0  0  0  0  0  0  0
   21.9234   19.7691   21.6532 H   0  0  0  0  0  0  0  0  0  0  0  0
   20.5914   18.0573   21.2488 C   0  0  0  0  0  0  0  0  0  0  0  0
   19.4955   17.9888   21.2405 H   0  0  0  0  0  0  0  0  0  0  0  0
   20.9251   17.4565   20.3915 H   0  0  0  0  0  0  0  0  0  0  0  0
   21.1622   17.3950   22.5253 C   0  0  0  0  0  0  0  0  0  0  0  0
   22.2237   17.6531   22.6406 H   0  0  0  0  0  0  0  0  0  0  0  0
   21.1368   16.3058   22.3832 H   0  0  0  0  0  0  0  0  0  0  0  0
   20.3945   17.7111   23.8322 C   0  0  0  0  0  0  0  0  0  0  0  0
   19.3697   17.3235   23.7659 H   0  0  0  0  0  0  0  0  0  0  0  0
   20.8746   17.1395   24.6375 H   0  0  0  0  0  0  0  0  0  0  0  0
   20.3678   19.2058   24.2261 C   0  0  0  0  0  0  0  0  0  0  0  0
   21.3302   19.6592   23.9506 H   0  0  0  0  0  0  0  0  0  0  0  0
   19.2100   20.0022   23.5680 C   0  0  0  0  0  0  0  0  0  0  0  0
   18.4962   19.3308   23.0749 H   0  0  0  0  0  0  0  0  0  0  0  0
   18.6359   20.5053   24.3580 H   0  0  0  0  0  0  0  0  0  0  0  0
   19.6840   21.0882   22.5729 C   0  0  0  0  0  0  0  0  0  0  0  0
   20.5716   21.5999   22.9693 H   0  0  0  0  0  0  0  0  0  0  0  0
   18.9023   21.8575   22.5094 H   0  0  0  0  0  0  0  0  0  0  0  0
   19.9588   20.5830   21.1364 C   0  0  0  0  0  0  0  0  0  0  0  0
   20.2536   21.4526   20.5331 H   0  0  0  0  0  0  0  0  0  0  0  0
   19.0284   20.2133   20.6844 H   0  0  0  0  0  0  0  0  0  0  0  0
   20.2244   19.2862   25.6402 O   0  0  0  0  0  0  0  0  0  0  0  0
   21.0046   18.8390   26.0295 H   0  0  0  0  0  0  0  0  0  0  0  0
  1  2  1  0  0  0  0
  1  3  1  0  0  0  0
  1  4  1  0  0  0  0
  4  5  1  0  0  0  0
  4  6  1  0  0  0  0
  4  7  1  0  0  0  0
  7  8  1  0  0  0  0
  7  9  1  0  0  0  0
  7 10  1  0  0  0  0
 10 11  1  0  0  0  0
 10 12  1  0  0  0  0
 10 13  1  0  0  0  0
 13 14  1  0  0  0  0
 13 15  1  0  0  0  0
 15 16  1  0  0  0  0
 15 17  1  0  0  0  0
 15 18  1  0  0  0  0
 18 19  1  0  0  0  0
 18 20  1  0  0  0  0
  1 21  1  0  0  0  0
 18 21  1  0  0  0  0
 21 22  1  0  0  0  0
 21 23  1  0  0  0  0
 13 24  1  0  0  0  0
 24 25  1  0  0  0  0
M  END
> <VM2 Rank>
32

> <Conf_Id>
287

> <Probability>
1.21

> <Sum Probability>
82.33

> <Delta G>
0.810

> <G>
62.885

> <E>
30.766

> <-TS>
32.119

> <U+W>
10.199

> <U>
12.424

> <W>
-2.225

> <W(PB)>
-4.391

> <W(SA)>
2.165

> <Valence>
18.277

> <Coulomb>
-8.429

> <VdW>
2.575

> <VdW6>
-11.900

> <VdW12>
14.476

> <Bond>
0.331

> <Angle>
3.180

> <Pdih>
14.767

> <Idih>
0.000

> <Tether>
0.000

$$$$
VeraChem MOL file


 25 25  0  0  0  0  0  0  0  0999 V2000     
   19.7066   18.9900   20.9358 C   0  0  0  0  0  0  0  0  0  0  0  0
   18.8765   18.6760   21.5787 H   0  0  0  0  0  0  0  0  0  0  0  0
   19.3311   18.8527   19.9126 H   0  0  0  0  0  0  0  0  0  0  0  0
   20.9167   18.0393   21.1134 C   0  0  0  0  0  0  0  0  0  0  0  0
   20.5847   17.0295   20.8360 H   0  0  0  0  0  0  0  0  0  0  0  0
   21.6969   18.3052   20.3874 H   0  0  0  0  0  0  0  0  0  0  0  0
   21.5502   17.9581   22.5258 C   0  0  0  0  0  0  0  0  0  0  0  0
   22.2605   18.7788   22.6770 H   0  0  0  0  0  0  0  0  0  0  0  0
   22.1695   17.0509   22.5513 H   0  0  0  0  0  0  0  0  0  0  0  0
   20.5405   17.8884   23.7027 C   0  0  0  0  0  0  0  0  0  0  0  0
   19.5747   17.4865   23.3731 H   0  0  0  0  0  0  0  0  0  0  0  0
   20.9269   17.1553   24.4231 H   0  0  0  0  0  0  0  0  0  0  0  0
   20.3411   19.2170   24.4741 C   0  0  0  0  0  0  0  0  0  0  0  0
   21.3304   19.5849   24.7820 H   0  0  0  0  0  0  0  0  0  0  0  0
   19.6158   20.3543   23.7113 C   0  0  0  0  0  0  0  0  0  0  0  0
   18.6242   20.0229   23.3794 H   0  0  0  0  0  0  0  0  0  0  0  0
   19.4251   21.1609   24.4313 H   0  0  0  0  0  0  0  0  0  0  0  0
   20.4211   20.9700   22.5359 C   0  0  0  0  0  0  0  0  0  0  0  0
   21.4959   20.8150   22.6832 H   0  0  0  0  0  0  0  0  0  0  0  0
   20.2943   22.0609   22.5672 H   0  0  0  0  0  0  0  0  0  0  0  0
   19.9924   20.5011   21.1220 C   0  0  0  0  0  0  0  0  0  0  0  0
   20.7523   20.8189   20.3954 H   0  0  0  0  0  0  0  0  0  0  0  0
   19.0769   21.0447   20.8512 H   0  0  0  0  0  0  0  0  0  0  0  0
   19.5797   18.9249   25.6391 O   0  0  0  0  0  0  0  0  0  0  0  0
   19.5179   19.7569   26.1530 H   0  0  0  0  0  0  0  0  0  0  0  0
  1  2  1  0  0  0  0
  1  3  1  0  0  0  0
  1  4  1  0  0  0  0
  4  5  1  0  0  0  0
  4  6  1  0  0  0  0
  4  7  1  0  0  0  0
  7  8  1  0  0  0  0
  7  9  1  0  0  0  0
  7 10  1  0  0  0  0
 10 11  1  0  0  0  0
 10 12  1  0  0  0  0
 10 13  1  0  0  0  0
 13 14  1  0  0  0  0
 13 15  1  0  0  0  0
 15 16  1  0  0  0  0
 15 17  1  0  0  0  0
 15 18  1  0  0  0  0
 18 19  1  0  0  0  0
 18 20  1  0  0  0  0
  1 21  1  0  0  0  0
 18 21  1  0  0  0  0
 21 22  1  0  0  0  0
 21 23  1  0  0  0  0
 13 24  1  0  0  0  0
 24 25  1  0  0  0  0
M  END
> <VM2 Rank>
33

> <Conf_Id>
24

> <Probability>
1.18

> <Sum Probability>
83.51

> <Delta G>
0.824

> <G>
62.899

> <E>
30.245

> <-TS>
32.654

> <U+W>
9.678

> <U>
11.876

> <W>
-2.199

> <W(PB)>
-4.335

> <W(SA)>
2.137

> <Valence>
17.153

> <Coulomb>
-7.966

> <VdW>
2.689

> <VdW6>
-12.458

> <VdW12>
15.147

> <Bond>
0.421

> <Angle>
5.258

> <Pdih>
11.475

> <Idih>
0.000

> <Tether>
0.000

$$$$
VeraChem MOL file


 25 25  0  0  0  0  0  0  0  0999 V2000     
   21.0514   19.5112   20.9993 C   0  0  0  0  0  0  0  0  0  0  0  0
   21.8463   19.9279   21.6318 H   0  0  0  0  0  0  0  0  0  0  0  0
   21.3561   19.7358   19.9679 H   0  0  0  0  0  0  0  0  0  0  0  0
   21.0014   17.9708   21.1385 C   0  0  0  0  0  0  0  0  0  0  0  0
   20.0723   17.5828   20.6992 H   0  0  0  0  0  0  0  0  0  0  0  0
   21.8130   17.5488   20.5301 H   0  0  0  0  0  0  0  0  0  0  0  0
   21.1725   17.4294   22.5777 C   0  0  0  0  0  0  0  0  0  0  0  0
   22.1679   17.6898   22.9630 H   0  0  0  0  0  0  0  0  0  0  0  0
   21.1541   16.3323   22.5225 H   0  0  0  0  0  0  0  0  0  0  0  0
   20.0822   17.8787   23.5793 C   0  0  0  0  0  0  0  0  0  0  0  0
   19.0990   17.8565   23.0927 H   0  0  0  0  0  0  0  0  0  0  0  0
   20.0328   17.1189   24.3710 H   0  0  0  0  0  0  0  0  0  0  0  0
   20.3576   19.2619   24.2270 C   0  0  0  0  0  0  0  0  0  0  0  0
   21.3624   19.6084   23.9485 H   0  0  0  0  0  0  0  0  0  0  0  0
   19.3335   20.3503   23.8323 C   0  0  0  0  0  0  0  0  0  0  0  0
   18.3261   19.9182   23.7762 H   0  0  0  0  0  0  0  0  0  0  0  0
   19.2928   21.1003   24.6339 H   0  0  0  0  0  0  0  0  0  0  0  0
   19.6546   21.1031   22.5181 C   0  0  0  0  0  0  0  0  0  0  0  0
   20.5981   21.6560   22.6229 H   0  0  0  0  0  0  0  0  0  0  0  0
   18.8783   21.8678   22.3779 H   0  0  0  0  0  0  0  0  0  0  0  0
   19.6943   20.2227   21.2466 C   0  0  0  0  0  0  0  0  0  0  0  0
   19.5068   20.8810   20.3870 H   0  0  0  0  0  0  0  0  0  0  0  0
   18.8607   19.5079   21.2504 H   0  0  0  0  0  0  0  0  0  0  0  0
   20.3167   19.1148   25.6414 O   0  0  0  0  0  0  0  0  0  0  0  0
   19.4071   18.8273   25.8632 H   0  0  0  0  0  0  0  0  0  0  0  0
  1  2  1  0  0  0  0
  1  3  1  0  0  0  0
  1  4  1  0  0  0  0
  4  5  1  0  0  0  0
  4  6  1  0  0  0  0
  4  7  1  0  0  0  0
  7  8  1  0  0  0  0
  7  9  1  0  0  0  0
  7 10  1  0  0  0  0
 10 11  1  0  0  0  0
 10 12  1  0  0  0  0
 10 13  1  0  0  0  0
 13 14  1  0  0  0  0
 13 15  1  0  0  0  0
 15 16  1  0  0  0  0
 15 17  1  0  0  0  0
 15 18  1  0  0  0  0
 18 19  1  0  0  0  0
 18 20  1  0  0  0  0
  1 21  1  0  0  0  0
 18 21  1  0  0  0  0
 21 22  1  0  0  0  0
 21 23  1  0  0  0  0
 13 24  1  0  0  0  0
 24 25  1  0  0  0  0
M  END
> <VM2 Rank>
34

> <Conf_Id>
582

> <Probability>
1.18

> <Sum Probability>
84.69

> <Delta G>
0.825

> <G>
62.901

> <E>
30.812

> <-TS>
32.089

> <U+W>
10.244

> <U>
12.337

> <W>
-2.092

> <W(PB)>
-4.240

> <W(SA)>
2.147

> <Valence>
18.676

> <Coulomb>
-8.851

> <VdW>
2.512

> <VdW6>
-11.906

> <VdW12>
14.417

> <Bond>
0.323

> <Angle>
3.226

> <Pdih>
15.127

> <Idih>
0.000

> <Tether>
0.000

$$$$
VeraChem MOL file


 25 25  0  0  0  0  0  0  0  0999 V2000     
   20.7696   19.2499   20.7967 C   0  0  0  0  0  0  0  0  0  0  0  0
   20.7275   19.0840   19.7116 H   0  0  0  0  0  0  0  0  0  0  0  0
   21.8284   19.4367   21.0170 H   0  0  0  0  0  0  0  0  0  0  0  0
   20.2745   17.9524   21.4863 C   0  0  0  0  0  0  0  0  0  0  0  0
   19.2069   18.0257   21.7227 H   0  0  0  0  0  0  0  0  0  0  0  0
   20.3397   17.1310   20.7597 H   0  0  0  0  0  0  0  0  0  0  0  0
   21.0789   17.5205   22.7386 C   0  0  0  0  0  0  0  0  0  0  0  0
   22.0119   17.0538   22.3950 H   0  0  0  0  0  0  0  0  0  0  0  0
   20.5254   16.7280   23.2605 H   0  0  0  0  0  0  0  0  0  0  0  0
   21.4603   18.6319   23.7533 C   0  0  0  0  0  0  0  0  0  0  0  0
   22.0940   18.1709   24.5219 H   0  0  0  0  0  0  0  0  0  0  0  0
   22.1072   19.3732   23.2726 H   0  0  0  0  0  0  0  0  0  0  0  0
   20.3029   19.3485   24.4922 C   0  0  0  0  0  0  0  0  0  0  0  0
   20.7727   20.0534   25.1933 H   0  0  0  0  0  0  0  0  0  0  0  0
   19.3228   20.1699   23.6197 C   0  0  0  0  0  0  0  0  0  0  0  0
   18.5669   19.5188   23.1670 H   0  0  0  0  0  0  0  0  0  0  0  0
   18.7598   20.8217   24.3003 H   0  0  0  0  0  0  0  0  0  0  0  0
   19.9830   21.0696   22.5405 C   0  0  0  0  0  0  0  0  0  0  0  0
   21.0171   21.3193   22.8106 H   0  0  0  0  0  0  0  0  0  0  0  0
   19.4481   22.0292   22.5373 H   0  0  0  0  0  0  0  0  0  0  0  0
   19.9145   20.5086   21.0964 C   0  0  0  0  0  0  0  0  0  0  0  0
   18.8670   20.3081   20.8330 H   0  0  0  0  0  0  0  0  0  0  0  0
   20.2420   21.3044   20.4136 H   0  0  0  0  0  0  0  0  0  0  0  0
   19.5577   18.3917   25.2364 O   0  0  0  0  0  0  0  0  0  0  0  0
   18.8668   18.8878   25.7218 H   0  0  0  0  0  0  0  0  0  0  0  0
  1  2  1  0  0  0  0
  1  3  1  0  0  0  0
  1  4  1  0  0  0  0
  4  5  1  0  0  0  0
  4  6  1  0  0  0  0
  4  7  1  0  0  0  0
  7  8  1  0  0  0  0
  7  9  1  0  0  0  0
  7 10  1  0  0  0  0
 10 11  1  0  0  0  0
 10 12  1  0  0  0  0
 10 13  1  0  0  0  0
 13 14  1  0  0  0  0
 13 15  1  0  0  0  0
 15 16  1  0  0  0  0
 15 17  1  0  0  0  0
 15 18  1  0  0  0  0
 18 19  1  0  0  0  0
 18 20  1  0  0  0  0
  1 21  1  0  0  0  0
 18 21  1  0  0  0  0
 21 22  1  0  0  0  0
 21 23  1  0  0  0  0
 13 24  1  0  0  0  0
 24 25  1  0  0  0  0
M  END
> <VM2 Rank>
35

> <Conf_Id>
246

> <Probability>
0.88

> <Sum Probability>
85.57

> <Delta G>
0.998

> <G>
63.073

> <E>
30.342

> <-TS>
32.731

> <U+W>
9.775

> <U>
11.974

> <W>
-2.199

> <W(PB)>
-4.332

> <W(SA)>
2.133

> <Valence>
16.772

> <Coulomb>
-7.357

> <VdW>
2.559

> <VdW6>
-12.877

> <VdW12>
15.436

> <Bond>
0.436

> <Angle>
5.452

> <Pdih>
10.883

> <Idih>
0.000

> <Tether>
0.000

$$$$
VeraChem MOL file


 25 25  0  0  0  0  0  0  0  0999 V2000     
   20.6662   19.5023   20.7965 C   0  0  0  0  0  0  0  0  0  0  0  0
   21.5412   20.1271   21.0168 H   0  0  0  0  0  0  0  0  0  0  0  0
   20.5216   19.5842   19.7106 H   0  0  0  0  0  0  0  0  0  0  0  0
   20.9631   18.0113   21.1032 C   0  0  0  0  0  0  0  0  0  0  0  0
   20.0864   17.4040   20.8397 H   0  0  0  0  0  0  0  0  0  0  0  0
   21.7622   17.6840   20.4241 H   0  0  0  0  0  0  0  0  0  0  0  0
   21.4070   17.6727   22.5500 C   0  0  0  0  0  0  0  0  0  0  0  0
   22.3094   18.2360   22.8204 H   0  0  0  0  0  0  0  0  0  0  0  0
   21.7160   16.6184   22.5520 H   0  0  0  0  0  0  0  0  0  0  0  0
   20.2995   17.8374   23.6253 C   0  0  0  0  0  0  0  0  0  0  0  0
   19.3065   17.7531   23.1702 H   0  0  0  0  0  0  0  0  0  0  0  0
   20.3673   16.9817   24.3097 H   0  0  0  0  0  0  0  0  0  0  0  0
   20.3987   19.1156   24.4929 C   0  0  0  0  0  0  0  0  0  0  0  0
   21.2288   18.9593   25.1969 H   0  0  0  0  0  0  0  0  0  0  0  0
   20.7013   20.4403   23.7493 C   0  0  0  0  0  0  0  0  0  0  0  0
   20.8148   21.2186   24.5150 H   0  0  0  0  0  0  0  0  0  0  0  0
   21.6849   20.3798   23.2716 H   0  0  0  0  0  0  0  0  0  0  0  0
   19.6444   20.9434   22.7295 C   0  0  0  0  0  0  0  0  0  0  0  0
   19.9667   21.9344   22.3828 H   0  0  0  0  0  0  0  0  0  0  0  0
   18.6898   21.1065   23.2480 H   0  0  0  0  0  0  0  0  0  0  0  0
   19.3920   20.0619   21.4800 C   0  0  0  0  0  0  0  0  0  0  0  0
   18.6949   19.2503   21.7177 H   0  0  0  0  0  0  0  0  0  0  0  0
   18.8542   20.6813   20.7494 H   0  0  0  0  0  0  0  0  0  0  0  0
   19.1920   19.2583   25.2332 O   0  0  0  0  0  0  0  0  0  0  0  0
   19.0600   18.4200   25.7219 H   0  0  0  0  0  0  0  0  0  0  0  0
  1  2  1  0  0  0  0
  1  3  1  0  0  0  0
  1  4  1  0  0  0  0
  4  5  1  0  0  0  0
  4  6  1  0  0  0  0
  4  7  1  0  0  0  0
  7  8  1  0  0  0  0
  7  9  1  0  0  0  0
  7 10  1  0  0  0  0
 10 11  1  0  0  0  0
 10 12  1  0  0  0  0
 10 13  1  0  0  0  0
 13 14  1  0  0  0  0
 13 15  1  0  0  0  0
 15 16  1  0  0  0  0
 15 17  1  0  0  0  0
 15 18  1  0  0  0  0
 18 19  1  0  0  0  0
 18 20  1  0  0  0  0
  1 21  1  0  0  0  0
 18 21  1  0  0  0  0
 21 22  1  0  0  0  0
 21 23  1  0  0  0  0
 13 24  1  0  0  0  0
 24 25  1  0  0  0  0
M  END
> <VM2 Rank>
36

> <Conf_Id>
1548

> <Probability>
0.85

> <Sum Probability>
86.41

> <Delta G>
1.022

> <G>
63.097

> <E>
30.367

> <-TS>
32.730

> <U+W>
9.799

> <U>
11.974

> <W>
-2.174

> <W(PB)>
-4.302

> <W(SA)>
2.128

> <Valence>
16.772

> <Coulomb>
-7.357

> <VdW>
2.559

> <VdW6>
-12.877

> <VdW12>
15.436

> <Bond>
0.436

> <Angle>
5.452

> <Pdih>
10.883

> <Idih>
0.000

> <Tether>
0.000

$$$$
VeraChem MOL file


 25 25  0  0  0  0  0  0  0  0999 V2000     
   20.6894   19.3605   20.5518 C   0  0  0  0  0  0  0  0  0  0  0  0
   20.4075   19.2286   19.4982 H   0  0  0  0  0  0  0  0  0  0  0  0
   21.7573   19.6173   20.5406 H   0  0  0  0  0  0  0  0  0  0  0  0
   20.4715   18.0103   21.2743 C   0  0  0  0  0  0  0  0  0  0  0  0
   19.4079   17.8675   21.5070 H   0  0  0  0  0  0  0  0  0  0  0  0
   20.7216   17.2139   20.5599 H   0  0  0  0  0  0  0  0  0  0  0  0
   21.3604   17.8038   22.5285 C   0  0  0  0  0  0  0  0  0  0  0  0
   22.1866   18.5267   22.5577 H   0  0  0  0  0  0  0  0  0  0  0  0
   21.8391   16.8194   22.4329 H   0  0  0  0  0  0  0  0  0  0  0  0
   20.5887   17.8121   23.8705 C   0  0  0  0  0  0  0  0  0  0  0  0
   19.6359   17.2773   23.7617 H   0  0  0  0  0  0  0  0  0  0  0  0
   21.1762   17.2312   24.5936 H   0  0  0  0  0  0  0  0  0  0  0  0
   20.3423   19.2079   24.4848 C   0  0  0  0  0  0  0  0  0  0  0  0
   21.3104   19.7041   24.6440 H   0  0  0  0  0  0  0  0  0  0  0  0
   19.4388   20.1337   23.6395 C   0  0  0  0  0  0  0  0  0  0  0  0
   18.6168   19.5555   23.1994 H   0  0  0  0  0  0  0  0  0  0  0  0
   18.9601   20.8507   24.3201 H   0  0  0  0  0  0  0  0  0  0  0  0
   20.1930   20.9545   22.5589 C   0  0  0  0  0  0  0  0  0  0  0  0
   21.2785   20.9345   22.7243 H   0  0  0  0  0  0  0  0  0  0  0  0
   19.8993   22.0063   22.6791 H   0  0  0  0  0  0  0  0  0  0  0  0
   19.8640   20.5457   21.1045 C   0  0  0  0  0  0  0  0  0  0  0  0
   20.0592   21.4119   20.4574 H   0  0  0  0  0  0  0  0  0  0  0  0
   18.7903   20.3376   21.0025 H   0  0  0  0  0  0  0  0  0  0  0  0
   19.7158   19.0146   25.7472 O   0  0  0  0  0  0  0  0  0  0  0  0
   20.3273   18.4710   26.2866 H   0  0  0  0  0  0  0  0  0  0  0  0
  1  2  1  0  0  0  0
  1  3  1  0  0  0  0
  1  4  1  0  0  0  0
  4  5  1  0  0  0  0
  4  6  1  0  0  0  0
  4  7  1  0  0  0  0
  7  8  1  0  0  0  0
  7  9  1  0  0  0  0
  7 10  1  0  0  0  0
 10 11  1  0  0  0  0
 10 12  1  0  0  0  0
 10 13  1  0  0  0  0
 13 14  1  0  0  0  0
 13 15  1  0  0  0  0
 15 16  1  0  0  0  0
 15 17  1  0  0  0  0
 15 18  1  0  0  0  0
 18 19  1  0  0  0  0
 18 20  1  0  0  0  0
  1 21  1  0  0  0  0
 18 21  1  0  0  0  0
 21 22  1  0  0  0  0
 21 23  1  0  0  0  0
 13 24  1  0  0  0  0
 24 25  1  0  0  0  0
M  END
> <VM2 Rank>
37

> <Conf_Id>
1654

> <Probability>
0.76

> <Sum Probability>
87.18

> <Delta G>
1.084

> <G>
63.159

> <E>
31.416

> <-TS>
31.743

> <U+W>
10.849

> <U>
13.140

> <W>
-2.291

> <W(PB)>
-4.429

> <W(SA)>
2.137

> <Valence>
19.156

> <Coulomb>
-8.157

> <VdW>
2.141

> <VdW6>
-11.576

> <VdW12>
13.717

> <Bond>
0.294

> <Angle>
3.548

> <Pdih>
15.314

> <Idih>
0.000

> <Tether>
0.000

$$$$
VeraChem MOL file


 25 25  0  0  0  0  0  0  0  0999 V2000     
   20.6949   19.3626   20.5550 C   0  0  0  0  0  0  0  0  0  0  0  0
   21.7625   19.6211   20.5508 H   0  0  0  0  0  0  0  0  0  0  0  0
   20.4198   19.2327   19.4993 H   0  0  0  0  0  0  0  0  0  0  0  0
   20.4745   18.0100   21.2724 C   0  0  0  0  0  0  0  0  0  0  0  0
   19.4101   17.8656   21.5006 H   0  0  0  0  0  0  0  0  0  0  0  0
   20.7279   17.2163   20.5562 H   0  0  0  0  0  0  0  0  0  0  0  0
   21.3586   17.7986   22.5292 C   0  0  0  0  0  0  0  0  0  0  0  0
   22.1892   18.5164   22.5603 H   0  0  0  0  0  0  0  0  0  0  0  0
   21.8311   16.8111   22.4360 H   0  0  0  0  0  0  0  0  0  0  0  0
   20.5836   17.8123   23.8694 C   0  0  0  0  0  0  0  0  0  0  0  0
   19.6295   17.2802   23.7618 H   0  0  0  0  0  0  0  0  0  0  0  0
   21.1661   17.2339   24.5988 H   0  0  0  0  0  0  0  0  0  0  0  0
   20.3417   19.2089   24.4822 C   0  0  0  0  0  0  0  0  0  0  0  0
   21.3128   19.7011   24.6353 H   0  0  0  0  0  0  0  0  0  0  0  0
   19.4343   20.1327   23.6383 C   0  0  0  0  0  0  0  0  0  0  0  0
   18.6176   19.5498   23.1938 H   0  0  0  0  0  0  0  0  0  0  0  0
   18.9470   20.8489   24.3132 H   0  0  0  0  0  0  0  0  0  0  0  0
   20.1880   20.9561   22.5597 C   0  0  0  0  0  0  0  0  0  0  0  0
   21.2733   20.9399   22.7271 H   0  0  0  0  0  0  0  0  0  0  0  0
   19.8904   22.0071   22.6784 H   0  0  0  0  0  0  0  0  0  0  0  0
   19.8642   20.5455   21.1046 C   0  0  0  0  0  0  0  0  0  0  0  0
   20.0590   21.4120   20.4578 H   0  0  0  0  0  0  0  0  0  0  0  0
   18.7914   20.3344   20.9993 H   0  0  0  0  0  0  0  0  0  0  0  0
   19.7243   19.0162   25.7491 O   0  0  0  0  0  0  0  0  0  0  0  0
   19.6417   19.9017   26.1608 H   0  0  0  0  0  0  0  0  0  0  0  0
  1  2  1  0  0  0  0
  1  3  1  0  0  0  0
  1  4  1  0  0  0  0
  4  5  1  0  0  0  0
  4  6  1  0  0  0  0
  4  7  1  0  0  0  0
  7  8  1  0  0  0  0
  7  9  1  0  0  0  0
  7 10  1  0  0  0  0
 10 11  1  0  0  0  0
 10 12  1  0  0  0  0
 10 13  1  0  0  0  0
 13 14  1  0  0  0  0
 13 15  1  0  0  0  0
 15 16  1  0  0  0  0
 15 17  1  0  0  0  0
 15 18  1  0  0  0  0
 18 19  1  0  0  0  0
 18 20  1  0  0  0  0
  1 21  1  0  0  0  0
 18 21  1  0  0  0  0
 21 22  1  0  0  0  0
 21 23  1  0  0  0  0
 13 24  1  0  0  0  0
 24 25  1  0  0  0  0
M  END
> <VM2 Rank>
38

> <Conf_Id>
715

> <Probability>
0.76

> <Sum Probability>
87.94

> <Delta G>
1.086

> <G>
63.161

> <E>
31.434

> <-TS>
31.728

> <U+W>
10.866

> <U>
13.061

> <W>
-2.195

> <W(PB)>
-4.334

> <W(SA)>
2.139

> <Valence>
19.173

> <Coulomb>
-8.232

> <VdW>
2.120

> <VdW6>
-11.562

> <VdW12>
13.682

> <Bond>
0.293

> <Angle>
3.543

> <Pdih>
15.337

> <Idih>
0.000

> <Tether>
0.000

$$$$
VeraChem MOL file


 25 25  0  0  0  0  0  0  0  0999 V2000     
   20.6945   19.3622   20.5547 C   0  0  0  0  0  0  0  0  0  0  0  0
   20.4187   19.2321   19.4992 H   0  0  0  0  0  0  0  0  0  0  0  0
   21.7619   19.6214   20.5498 H   0  0  0  0  0  0  0  0  0  0  0  0
   20.4754   18.0096   21.2724 C   0  0  0  0  0  0  0  0  0  0  0  0
   19.4110   17.8642   21.4997 H   0  0  0  0  0  0  0  0  0  0  0  0
   20.7301   17.2160   20.5565 H   0  0  0  0  0  0  0  0  0  0  0  0
   21.3595   17.8001   22.5295 C   0  0  0  0  0  0  0  0  0  0  0  0
   22.1878   18.5205   22.5616 H   0  0  0  0  0  0  0  0  0  0  0  0
   21.8352   16.8141   22.4358 H   0  0  0  0  0  0  0  0  0  0  0  0
   20.5831   17.8108   23.8686 C   0  0  0  0  0  0  0  0  0  0  0  0
   19.6318   17.2748   23.7560 H   0  0  0  0  0  0  0  0  0  0  0  0
   21.1676   17.2329   24.5969 H   0  0  0  0  0  0  0  0  0  0  0  0
   20.3405   19.2075   24.4815 C   0  0  0  0  0  0  0  0  0  0  0  0
   21.3106   19.7002   24.6376 H   0  0  0  0  0  0  0  0  0  0  0  0
   19.4350   20.1356   23.6405 C   0  0  0  0  0  0  0  0  0  0  0  0
   18.6113   19.5612   23.1983 H   0  0  0  0  0  0  0  0  0  0  0  0
   18.9606   20.8548   24.3221 H   0  0  0  0  0  0  0  0  0  0  0  0
   20.1886   20.9561   22.5597 C   0  0  0  0  0  0  0  0  0  0  0  0
   21.2738   20.9399   22.7270 H   0  0  0  0  0  0  0  0  0  0  0  0
   19.8916   22.0074   22.6771 H   0  0  0  0  0  0  0  0  0  0  0  0
   19.8633   20.5443   21.1052 C   0  0  0  0  0  0  0  0  0  0  0  0
   20.0566   21.4106   20.4578 H   0  0  0  0  0  0  0  0  0  0  0  0
   18.7906   20.3322   21.0010 H   0  0  0  0  0  0  0  0  0  0  0  0
   19.7241   19.0168   25.7480 O   0  0  0  0  0  0  0  0  0  0  0  0
   18.8622   18.5856   25.5740 H   0  0  0  0  0  0  0  0  0  0  0  0
  1  2  1  0  0  0  0
  1  3  1  0  0  0  0
  1  4  1  0  0  0  0
  4  5  1  0  0  0  0
  4  6  1  0  0  0  0
  4  7  1  0  0  0  0
  7  8  1  0  0  0  0
  7  9  1  0  0  0  0
  7 10  1  0  0  0  0
 10 11  1  0  0  0  0
 10 12  1  0  0  0  0
 10 13  1  0  0  0  0
 13 14  1  0  0  0  0
 13 15  1  0  0  0  0
 15 16  1  0  0  0  0
 15 17  1  0  0  0  0
 15 18  1  0  0  0  0
 18 19  1  0  0  0  0
 18 20  1  0  0  0  0
  1 21  1  0  0  0  0
 18 21  1  0  0  0  0
 21 22  1  0  0  0  0
 21 23  1  0  0  0  0
 13 24  1  0  0  0  0
 24 25  1  0  0  0  0
M  END
> <VM2 Rank>
39

> <Conf_Id>
1541

> <Probability>
0.69

> <Sum Probability>
88.62

> <Delta G>
1.147

> <G>
63.222

> <E>
31.524

> <-TS>
31.698

> <U+W>
10.956

> <U>
12.791

> <W>
-1.835

> <W(PB)>
-3.980

> <W(SA)>
2.145

> <Valence>
19.528

> <Coulomb>
-8.823

> <VdW>
2.086

> <VdW6>
-11.580

> <VdW12>
13.666

> <Bond>
0.287

> <Angle>
3.589

> <Pdih>
15.653

> <Idih>
0.000

> <Tether>
0.000

$$$$
VeraChem MOL file


 25 25  0  0  0  0  0  0  0  0999 V2000     
   19.8928   19.0179   21.0113 C   0  0  0  0  0  0  0  0  0  0  0  0
   18.9966   18.5662   21.4546 H   0  0  0  0  0  0  0  0  0  0  0  0
   19.7725   18.8834   19.9273 H   0  0  0  0  0  0  0  0  0  0  0  0
   21.1819   18.2628   21.4203 C   0  0  0  0  0  0  0  0  0  0  0  0
   21.4349   17.5826   20.5952 H   0  0  0  0  0  0  0  0  0  0  0  0
   22.0370   18.9470   21.5033 H   0  0  0  0  0  0  0  0  0  0  0  0
   21.0537   17.3990   22.6949 C   0  0  0  0  0  0  0  0  0  0  0  0
   21.7951   16.5918   22.6185 H   0  0  0  0  0  0  0  0  0  0  0  0
   20.0806   16.8909   22.7242 H   0  0  0  0  0  0  0  0  0  0  0  0
   21.3329   18.1399   24.0276 C   0  0  0  0  0  0  0  0  0  0  0  0
   21.3874   17.3800   24.8181 H   0  0  0  0  0  0  0  0  0  0  0  0
   22.3322   18.5926   23.9943 H   0  0  0  0  0  0  0  0  0  0  0  0
   20.3015   19.1967   24.4883 C   0  0  0  0  0  0  0  0  0  0  0  0
   20.4832   19.3391   25.5635 H   0  0  0  0  0  0  0  0  0  0  0  0
   20.4724   20.5971   23.8380 C   0  0  0  0  0  0  0  0  0  0  0  0
   20.3192   21.3280   24.6427 H   0  0  0  0  0  0  0  0  0  0  0  0
   21.5124   20.7436   23.5195 H   0  0  0  0  0  0  0  0  0  0  0  0
   19.5102   20.9947   22.6849 C   0  0  0  0  0  0  0  0  0  0  0  0
   18.4784   20.6846   22.8950 H   0  0  0  0  0  0  0  0  0  0  0  0
   19.4711   22.0924   22.6634 H   0  0  0  0  0  0  0  0  0  0  0  0
   19.9344   20.5411   21.2701 C   0  0  0  0  0  0  0  0  0  0  0  0
   20.9287   20.9409   21.0289 H   0  0  0  0  0  0  0  0  0  0  0  0
   19.2475   21.0182   20.5575 H   0  0  0  0  0  0  0  0  0  0  0  0
   18.9843   18.6938   24.3246 O   0  0  0  0  0  0  0  0  0  0  0  0
   18.8738   18.6268   23.3554 H   0  0  0  0  0  0  0  0  0  0  0  0
  1  2  1  0  0  0  0
  1  3  1  0  0  0  0
  1  4  1  0  0  0  0
  4  5  1  0  0  0  0
  4  6  1  0  0  0  0
  4  7  1  0  0  0  0
  7  8  1  0  0  0  0
  7  9  1  0  0  0  0
  7 10  1  0  0  0  0
 10 11  1  0  0  0  0
 10 12  1  0  0  0  0
 10 13  1  0  0  0  0
 13 14  1  0  0  0  0
 13 15  1  0  0  0  0
 15 16  1  0  0  0  0
 15 17  1  0  0  0  0
 15 18  1  0  0  0  0
 18 19  1  0  0  0  0
 18 20  1  0  0  0  0
  1 21  1  0  0  0  0
 18 21  1  0  0  0  0
 21 22  1  0  0  0  0
 21 23  1  0  0  0  0
 13 24  1  0  0  0  0
 24 25  1  0  0  0  0
M  END
> <VM2 Rank>
40

> <Conf_Id>
1625

> <Probability>
0.63

> <Sum Probability>
89.25

> <Delta G>
1.195

> <G>
63.271

> <E>
31.217

> <-TS>
32.053

> <U+W>
10.650

> <U>
11.809

> <W>
-1.159

> <W(PB)>
-3.265

> <W(SA)>
2.105

> <Valence>
19.951

> <Coulomb>
-10.074

> <VdW>
1.932

> <VdW6>
-12.999

> <VdW12>
14.931

> <Bond>
0.347

> <Angle>
6.175

> <Pdih>
13.428

> <Idih>
0.000

> <Tether>
0.000

$$$$
VeraChem MOL file


 25 25  0  0  0  0  0  0  0  0999 V2000     
   21.0539   19.5284   20.9875 C   0  0  0  0  0  0  0  0  0  0  0  0
   21.8762   19.8810   21.6203 H   0  0  0  0  0  0  0  0  0  0  0  0
   21.4100   19.6805   19.9595 H   0  0  0  0  0  0  0  0  0  0  0  0
   20.8395   18.0066   21.1808 C   0  0  0  0  0  0  0  0  0  0  0  0
   20.0840   17.6529   20.4663 H   0  0  0  0  0  0  0  0  0  0  0  0
   21.7744   17.5036   20.8984 H   0  0  0  0  0  0  0  0  0  0  0  0
   20.4518   17.5239   22.6020 C   0  0  0  0  0  0  0  0  0  0  0  0
   20.6259   16.4399   22.6347 H   0  0  0  0  0  0  0  0  0  0  0  0
   19.3737   17.6302   22.7649 H   0  0  0  0  0  0  0  0  0  0  0  0
   21.2501   18.1755   23.7657 C   0  0  0  0  0  0  0  0  0  0  0  0
   21.4756   17.3868   24.4953 H   0  0  0  0  0  0  0  0  0  0  0  0
   22.2292   18.5234   23.4152 H   0  0  0  0  0  0  0  0  0  0  0  0
   20.5320   19.3080   24.5471 C   0  0  0  0  0  0  0  0  0  0  0  0
   21.2136   19.6013   25.3585 H   0  0  0  0  0  0  0  0  0  0  0  0
   20.2089   20.6064   23.7607 C   0  0  0  0  0  0  0  0  0  0  0  0
   19.8028   21.3262   24.4831 H   0  0  0  0  0  0  0  0  0  0  0  0
   21.1379   21.0668   23.4034 H   0  0  0  0  0  0  0  0  0  0  0  0
   19.1846   20.4735   22.5995 C   0  0  0  0  0  0  0  0  0  0  0  0
   18.5167   21.3449   22.6310 H   0  0  0  0  0  0  0  0  0  0  0  0
   18.5218   19.6162   22.7608 H   0  0  0  0  0  0  0  0  0  0  0  0
   19.8028   20.4220   21.1789 C   0  0  0  0  0  0  0  0  0  0  0  0
   20.0826   21.4460   20.8964 H   0  0  0  0  0  0  0  0  0  0  0  0
   19.0268   20.1177   20.4636 H   0  0  0  0  0  0  0  0  0  0  0  0
   19.3403   18.7987   25.1380 O   0  0  0  0  0  0  0  0  0  0  0  0
   18.9033   19.5540   25.5813 H   0  0  0  0  0  0  0  0  0  0  0  0
  1  2  1  0  0  0  0
  1  3  1  0  0  0  0
  1  4  1  0  0  0  0
  4  5  1  0  0  0  0
  4  6  1  0  0  0  0
  4  7  1  0  0  0  0
  7  8  1  0  0  0  0
  7  9  1  0  0  0  0
  7 10  1  0  0  0  0
 10 11  1  0  0  0  0
 10 12  1  0  0  0  0
 10 13  1  0  0  0  0
 13 14  1  0  0  0  0
 13 15  1  0  0  0  0
 15 16  1  0  0  0  0
 15 17  1  0  0  0  0
 15 18  1  0  0  0  0
 18 19  1  0  0  0  0
 18 20  1  0  0  0  0
  1 21  1  0  0  0  0
 18 21  1  0  0  0  0
 21 22  1  0  0  0  0
 21 23  1  0  0  0  0
 13 24  1  0  0  0  0
 24 25  1  0  0  0  0
M  END
> <VM2 Rank>
41

> <Conf_Id>
644

> <Probability>
0.59

> <Sum Probability>
89.84

> <Delta G>
1.238

> <G>
63.314

> <E>
30.500

> <-TS>
32.814

> <U+W>
9.932

> <U>
12.093

> <W>
-2.161

> <W(PB)>
-4.282

> <W(SA)>
2.121

> <Valence>
16.788

> <Coulomb>
-7.596

> <VdW>
2.902

> <VdW6>
-13.303

> <VdW12>
16.205

> <Bond>
0.495

> <Angle>
5.823

> <Pdih>
10.470

> <Idih>
0.000

> <Tether>
0.000

$$$$
VeraChem MOL file


 25 25  0  0  0  0  0  0  0  0999 V2000     
   21.0541   19.5276   20.9874 C   0  0  0  0  0  0  0  0  0  0  0  0
   21.8755   19.8823   21.6201 H   0  0  0  0  0  0  0  0  0  0  0  0
   21.4104   19.6790   19.9594 H   0  0  0  0  0  0  0  0  0  0  0  0
   20.8402   18.0056   21.1817 C   0  0  0  0  0  0  0  0  0  0  0  0
   20.0857   17.6510   20.4666 H   0  0  0  0  0  0  0  0  0  0  0  0
   21.7756   17.5026   20.9009 H   0  0  0  0  0  0  0  0  0  0  0  0
   20.4508   17.5247   22.6030 C   0  0  0  0  0  0  0  0  0  0  0  0
   20.6226   16.4404   22.6368 H   0  0  0  0  0  0  0  0  0  0  0  0
   19.3726   17.6347   22.7633 H   0  0  0  0  0  0  0  0  0  0  0  0
   21.2516   18.1782   23.7635 C   0  0  0  0  0  0  0  0  0  0  0  0
   21.4934   17.3895   24.4878 H   0  0  0  0  0  0  0  0  0  0  0  0
   22.2255   18.5341   23.4063 H   0  0  0  0  0  0  0  0  0  0  0  0
   20.5321   19.3082   24.5470 C   0  0  0  0  0  0  0  0  0  0  0  0
   21.2135   19.6021   25.3584 H   0  0  0  0  0  0  0  0  0  0  0  0
   20.2060   20.6073   23.7628 C   0  0  0  0  0  0  0  0  0  0  0  0
   19.7889   21.3154   24.4906 H   0  0  0  0  0  0  0  0  0  0  0  0
   21.1328   21.0769   23.4121 H   0  0  0  0  0  0  0  0  0  0  0  0
   19.1847   20.4748   22.5986 C   0  0  0  0  0  0  0  0  0  0  0  0
   18.5186   21.3476   22.6290 H   0  0  0  0  0  0  0  0  0  0  0  0
   18.5193   19.6202   22.7626 H   0  0  0  0  0  0  0  0  0  0  0  0
   19.8029   20.4206   21.1779 C   0  0  0  0  0  0  0  0  0  0  0  0
   20.0822   21.4443   20.8937 H   0  0  0  0  0  0  0  0  0  0  0  0
   19.0267   20.1150   20.4634 H   0  0  0  0  0  0  0  0  0  0  0  0
   19.3416   18.7960   25.1380 O   0  0  0  0  0  0  0  0  0  0  0  0
   19.5880   17.9600   25.5834 H   0  0  0  0  0  0  0  0  0  0  0  0
  1  2  1  0  0  0  0
  1  3  1  0  0  0  0
  1  4  1  0  0  0  0
  4  5  1  0  0  0  0
  4  6  1  0  0  0  0
  4  7  1  0  0  0  0
  7  8  1  0  0  0  0
  7  9  1  0  0  0  0
  7 10  1  0  0  0  0
 10 11  1  0  0  0  0
 10 12  1  0  0  0  0
 10 13  1  0  0  0  0
 13 14  1  0  0  0  0
 13 15  1  0  0  0  0
 15 16  1  0  0  0  0
 15 17  1  0  0  0  0
 15 18  1  0  0  0  0
 18 19  1  0  0  0  0
 18 20  1  0  0  0  0
  1 21  1  0  0  0  0
 18 21  1  0  0  0  0
 21 22  1  0  0  0  0
 21 23  1  0  0  0  0
 13 24  1  0  0  0  0
 24 25  1  0  0  0  0
M  END
> <VM2 Rank>
42

> <Conf_Id>
1579

> <Probability>
0.57

> <Sum Probability>
90.41

> <Delta G>
1.261

> <G>
63.336

> <E>
30.523

> <-TS>
32.814

> <U+W>
9.955

> <U>
12.093

> <W>
-2.139

> <W(PB)>
-4.252

> <W(SA)>
2.114

> <Valence>
16.788

> <Coulomb>
-7.596

> <VdW>
2.902

> <VdW6>
-13.303

> <VdW12>
16.205

> <Bond>
0.495

> <Angle>
5.823

> <Pdih>
10.470

> <Idih>
0.000

> <Tether>
0.000

$$$$
VeraChem MOL file


 25 25  0  0  0  0  0  0  0  0999 V2000     
   20.2253   19.1434   20.6163 C   0  0  0  0  0  0  0  0  0  0  0  0
   19.1860   18.7991   20.5276 H   0  0  0  0  0  0  0  0  0  0  0  0
   20.5679   19.3164   19.5869 H   0  0  0  0  0  0  0  0  0  0  0  0
   21.1070   18.0237   21.2156 C   0  0  0  0  0  0  0  0  0  0  0  0
   21.0265   17.1522   20.5515 H   0  0  0  0  0  0  0  0  0  0  0  0
   22.1644   18.3193   21.1862 H   0  0  0  0  0  0  0  0  0  0  0  0
   20.7150   17.5734   22.6421 C   0  0  0  0  0  0  0  0  0  0  0  0
   21.0728   16.5420   22.7652 H   0  0  0  0  0  0  0  0  0  0  0  0
   19.6242   17.5077   22.7285 H   0  0  0  0  0  0  0  0  0  0  0  0
   21.3552   18.4191   23.7825 C   0  0  0  0  0  0  0  0  0  0  0  0
   21.8206   17.7192   24.4889 H   0  0  0  0  0  0  0  0  0  0  0  0
   22.1853   19.0235   23.3957 H   0  0  0  0  0  0  0  0  0  0  0  0
   20.4117   19.3227   24.6140 C   0  0  0  0  0  0  0  0  0  0  0  0
   20.9564   19.5818   25.5334 H   0  0  0  0  0  0  0  0  0  0  0  0
   20.0225   20.6654   23.9543 C   0  0  0  0  0  0  0  0  0  0  0  0
   19.3557   21.1883   24.6530 H   0  0  0  0  0  0  0  0  0  0  0  0
   20.9132   21.3020   23.8760 H   0  0  0  0  0  0  0  0  0  0  0  0
   19.3125   20.5870   22.5790 C   0  0  0  0  0  0  0  0  0  0  0  0
   18.5709   19.7784   22.5656 H   0  0  0  0  0  0  0  0  0  0  0  0
   18.7305   21.5114   22.4608 H   0  0  0  0  0  0  0  0  0  0  0  0
   20.2785   20.4923   21.3694 C   0  0  0  0  0  0  0  0  0  0  0  0
   21.3116   20.7247   21.6600 H   0  0  0  0  0  0  0  0  0  0  0  0
   19.9931   21.2779   20.6563 H   0  0  0  0  0  0  0  0  0  0  0  0
   19.2364   18.6160   24.9867 O   0  0  0  0  0  0  0  0  0  0  0  0
   18.7649   18.4356   24.1501 H   0  0  0  0  0  0  0  0  0  0  0  0
  1  2  1  0  0  0  0
  1  3  1  0  0  0  0
  1  4  1  0  0  0  0
  4  5  1  0  0  0  0
  4  6  1  0  0  0  0
  4  7  1  0  0  0  0
  7  8  1  0  0  0  0
  7  9  1  0  0  0  0
  7 10  1  0  0  0  0
 10 11  1  0  0  0  0
 10 12  1  0  0  0  0
 10 13  1  0  0  0  0
 13 14  1  0  0  0  0
 13 15  1  0  0  0  0
 15 16  1  0  0  0  0
 15 17  1  0  0  0  0
 15 18  1  0  0  0  0
 18 19  1  0  0  0  0
 18 20  1  0  0  0  0
  1 21  1  0  0  0  0
 18 21  1  0  0  0  0
 21 22  1  0  0  0  0
 21 23  1  0  0  0  0
 13 24  1  0  0  0  0
 24 25  1  0  0  0  0
M  END
> <VM2 Rank>
43

> <Conf_Id>
551

> <Probability>
0.57

> <Sum Probability>
90.97

> <Delta G>
1.262

> <G>
63.337

> <E>
31.413

> <-TS>
31.924

> <U+W>
10.846

> <U>
12.343

> <W>
-1.497

> <W(PB)>
-3.626

> <W(SA)>
2.129

> <Valence>
19.544

> <Coulomb>
-9.330

> <VdW>
2.129

> <VdW6>
-12.582

> <VdW12>
14.712

> <Bond>
0.361

> <Angle>
4.757

> <Pdih>
14.426

> <Idih>
0.000

> <Tether>
0.000

$$$$
VeraChem MOL file


 25 25  0  0  0  0  0  0  0  0999 V2000     
   20.5185   19.2005   20.7422 C   0  0  0  0  0  0  0  0  0  0  0  0
   20.9294   19.3740   19.7380 H   0  0  0  0  0  0  0  0  0  0  0  0
   19.5762   18.6604   20.5791 H   0  0  0  0  0  0  0  0  0  0  0  0
   21.5398   18.3098   21.4948 C   0  0  0  0  0  0  0  0  0  0  0  0
   22.0720   17.7016   20.7505 H   0  0  0  0  0  0  0  0  0  0  0  0
   22.3176   18.9357   21.9509 H   0  0  0  0  0  0  0  0  0  0  0  0
   20.9432   17.3284   22.5388 C   0  0  0  0  0  0  0  0  0  0  0  0
   21.7732   16.8719   23.0952 H   0  0  0  0  0  0  0  0  0  0  0  0
   20.4487   16.5032   22.0084 H   0  0  0  0  0  0  0  0  0  0  0  0
   19.9349   17.9293   23.5482 C   0  0  0  0  0  0  0  0  0  0  0  0
   18.9689   18.0657   23.0505 H   0  0  0  0  0  0  0  0  0  0  0  0
   19.7397   17.1814   24.3283 H   0  0  0  0  0  0  0  0  0  0  0  0
   20.4102   19.2557   24.1920 C   0  0  0  0  0  0  0  0  0  0  0  0
   21.4188   19.4993   23.8366 H   0  0  0  0  0  0  0  0  0  0  0  0
   19.4926   20.4589   23.8796 C   0  0  0  0  0  0  0  0  0  0  0  0
   18.5721   20.3687   24.4715 H   0  0  0  0  0  0  0  0  0  0  0  0
   19.9957   21.3657   24.2396 H   0  0  0  0  0  0  0  0  0  0  0  0
   19.0991   20.6672   22.3913 C   0  0  0  0  0  0  0  0  0  0  0  0
   18.6364   21.6608   22.3166 H   0  0  0  0  0  0  0  0  0  0  0  0
   18.3062   19.9665   22.0999 H   0  0  0  0  0  0  0  0  0  0  0  0
   20.2624   20.6006   21.3692 C   0  0  0  0  0  0  0  0  0  0  0  0
   21.1834   21.0190   21.7969 H   0  0  0  0  0  0  0  0  0  0  0  0
   19.9961   21.2735   20.5425 H   0  0  0  0  0  0  0  0  0  0  0  0
   20.4633   19.0926   25.6040 O   0  0  0  0  0  0  0  0  0  0  0  0
   21.0919   18.3607   25.7761 H   0  0  0  0  0  0  0  0  0  0  0  0
  1  2  1  0  0  0  0
  1  3  1  0  0  0  0
  1  4  1  0  0  0  0
  4  5  1  0  0  0  0
  4  6  1  0  0  0  0
  4  7  1  0  0  0  0
  7  8  1  0  0  0  0
  7  9  1  0  0  0  0
  7 10  1  0  0  0  0
 10 11  1  0  0  0  0
 10 12  1  0  0  0  0
 10 13  1  0  0  0  0
 13 14  1  0  0  0  0
 13 15  1  0  0  0  0
 15 16  1  0  0  0  0
 15 17  1  0  0  0  0
 15 18  1  0  0  0  0
 18 19  1  0  0  0  0
 18 20  1  0  0  0  0
  1 21  1  0  0  0  0
 18 21  1  0  0  0  0
 21 22  1  0  0  0  0
 21 23  1  0  0  0  0
 13 24  1  0  0  0  0
 24 25  1  0  0  0  0
M  END
> <VM2 Rank>
44

> <Conf_Id>
1338

> <Probability>
0.54

> <Sum Probability>
91.52

> <Delta G>
1.284

> <G>
63.359

> <E>
30.887

> <-TS>
32.472

> <U+W>
10.320

> <U>
12.311

> <W>
-1.992

> <W(PB)>
-4.137

> <W(SA)>
2.145

> <Valence>
17.914

> <Coulomb>
-8.725

> <VdW>
3.122

> <VdW6>
-12.447

> <VdW12>
15.569

> <Bond>
0.452

> <Angle>
4.377

> <Pdih>
13.085

> <Idih>
0.000

> <Tether>
0.000

$$$$
VeraChem MOL file


 25 25  0  0  0  0  0  0  0  0999 V2000     
   20.4623   19.3508   20.7421 C   0  0  0  0  0  0  0  0  0  0  0  0
   20.8788   19.5203   19.7396 H   0  0  0  0  0  0  0  0  0  0  0  0
   19.4228   19.0390   20.5737 H   0  0  0  0  0  0  0  0  0  0  0  0
   21.2953   18.2056   21.3852 C   0  0  0  0  0  0  0  0  0  0  0  0
   21.6056   17.5418   20.5664 H   0  0  0  0  0  0  0  0  0  0  0  0
   22.2300   18.5881   21.8167 H   0  0  0  0  0  0  0  0  0  0  0  0
   20.5340   17.3257   22.4091 C   0  0  0  0  0  0  0  0  0  0  0  0
   20.9355   16.3050   22.3462 H   0  0  0  0  0  0  0  0  0  0  0  0
   19.4820   17.2317   22.1105 H   0  0  0  0  0  0  0  0  0  0  0  0
   20.6432   17.7671   23.8946 C   0  0  0  0  0  0  0  0  0  0  0  0
   19.9389   17.1674   24.4864 H   0  0  0  0  0  0  0  0  0  0  0  0
   21.6442   17.5097   24.2644 H   0  0  0  0  0  0  0  0  0  0  0  0
   20.4015   19.2638   24.1924 C   0  0  0  0  0  0  0  0  0  0  0  0
   21.2759   19.8236   23.8388 H   0  0  0  0  0  0  0  0  0  0  0  0
   19.1178   19.8281   23.5340 C   0  0  0  0  0  0  0  0  0  0  0  0
   18.5546   19.0300   23.0389 H   0  0  0  0  0  0  0  0  0  0  0  0
   18.4356   20.2088   24.3057 H   0  0  0  0  0  0  0  0  0  0  0  0
   19.3852   20.9642   22.5168 C   0  0  0  0  0  0  0  0  0  0  0  0
   19.6223   21.8849   23.0672 H   0  0  0  0  0  0  0  0  0  0  0  0
   18.4505   21.1700   21.9775 H   0  0  0  0  0  0  0  0  0  0  0  0
   20.5153   20.7110   21.4835 C   0  0  0  0  0  0  0  0  0  0  0  0
   21.5013   20.8471   21.9460 H   0  0  0  0  0  0  0  0  0  0  0  0
   20.4472   21.5095   20.7318 H   0  0  0  0  0  0  0  0  0  0  0  0
   20.3093   19.4267   25.6023 O   0  0  0  0  0  0  0  0  0  0  0  0
   20.2111   20.3881   25.7656 H   0  0  0  0  0  0  0  0  0  0  0  0
  1  2  1  0  0  0  0
  1  3  1  0  0  0  0
  1  4  1  0  0  0  0
  4  5  1  0  0  0  0
  4  6  1  0  0  0  0
  4  7  1  0  0  0  0
  7  8  1  0  0  0  0
  7  9  1  0  0  0  0
  7 10  1  0  0  0  0
 10 11  1  0  0  0  0
 10 12  1  0  0  0  0
 10 13  1  0  0  0  0
 13 14  1  0  0  0  0
 13 15  1  0  0  0  0
 15 16  1  0  0  0  0
 15 17  1  0  0  0  0
 15 18  1  0  0  0  0
 18 19  1  0  0  0  0
 18 20  1  0  0  0  0
  1 21  1  0  0  0  0
 18 21  1  0  0  0  0
 21 22  1  0  0  0  0
 21 23  1  0  0  0  0
 13 24  1  0  0  0  0
 24 25  1  0  0  0  0
M  END
> <VM2 Rank>
45

> <Conf_Id>
1870

> <Probability>
0.53

> <Sum Probability>
92.05

> <Delta G>
1.297

> <G>
63.372

> <E>
30.900

> <-TS>
32.472

> <U+W>
10.333

> <U>
12.311

> <W>
-1.978

> <W(PB)>
-4.130

> <W(SA)>
2.152

> <Valence>
17.913

> <Coulomb>
-8.725

> <VdW>
3.123

> <VdW6>
-12.447

> <VdW12>
15.570

> <Bond>
0.452

> <Angle>
4.377

> <Pdih>
13.085

> <Idih>
0.000

> <Tether>
0.000

$$$$
VeraChem MOL file


 25 25  0  0  0  0  0  0  0  0999 V2000     
   20.4624   19.3497   20.7376 C   0  0  0  0  0  0  0  0  0  0  0  0
   20.8804   19.5201   19.7358 H   0  0  0  0  0  0  0  0  0  0  0  0
   19.4225   19.0396   20.5680 H   0  0  0  0  0  0  0  0  0  0  0  0
   21.2927   18.2033   21.3807 C   0  0  0  0  0  0  0  0  0  0  0  0
   21.5974   17.5358   20.5629 H   0  0  0  0  0  0  0  0  0  0  0  0
   22.2302   18.5833   21.8083 H   0  0  0  0  0  0  0  0  0  0  0  0
   20.5302   17.3307   22.4093 C   0  0  0  0  0  0  0  0  0  0  0  0
   20.9240   16.3071   22.3449 H   0  0  0  0  0  0  0  0  0  0  0  0
   19.4760   17.2437   22.1165 H   0  0  0  0  0  0  0  0  0  0  0  0
   20.6518   17.7723   23.8934 C   0  0  0  0  0  0  0  0  0  0  0  0
   19.9552   17.1665   24.4884 H   0  0  0  0  0  0  0  0  0  0  0  0
   21.6579   17.5163   24.2502 H   0  0  0  0  0  0  0  0  0  0  0  0
   20.4029   19.2675   24.1975 C   0  0  0  0  0  0  0  0  0  0  0  0
   21.2738   19.8371   23.8508 H   0  0  0  0  0  0  0  0  0  0  0  0
   19.1194   19.8314   23.5383 C   0  0  0  0  0  0  0  0  0  0  0  0
   18.5476   19.0322   23.0554 H   0  0  0  0  0  0  0  0  0  0  0  0
   18.4482   20.2243   24.3138 H   0  0  0  0  0  0  0  0  0  0  0  0
   19.3846   20.9610   22.5126 C   0  0  0  0  0  0  0  0  0  0  0  0
   19.6195   21.8843   23.0596 H   0  0  0  0  0  0  0  0  0  0  0  0
   18.4495   21.1624   21.9725 H   0  0  0  0  0  0  0  0  0  0  0  0
   20.5167   20.7078   21.4818 C   0  0  0  0  0  0  0  0  0  0  0  0
   21.5017   20.8410   21.9470 H   0  0  0  0  0  0  0  0  0  0  0  0
   20.4517   21.5079   20.7316 H   0  0  0  0  0  0  0  0  0  0  0  0
   20.3033   19.4193   25.6089 O   0  0  0  0  0  0  0  0  0  0  0  0
   21.1465   19.0948   25.9883 H   0  0  0  0  0  0  0  0  0  0  0  0
  1  2  1  0  0  0  0
  1  3  1  0  0  0  0
  1  4  1  0  0  0  0
  4  5  1  0  0  0  0
  4  6  1  0  0  0  0
  4  7  1  0  0  0  0
  7  8  1  0  0  0  0
  7  9  1  0  0  0  0
  7 10  1  0  0  0  0
 10 11  1  0  0  0  0
 10 12  1  0  0  0  0
 10 13  1  0  0  0  0
 13 14  1  0  0  0  0
 13 15  1  0  0  0  0
 15 16  1  0  0  0  0
 15 17  1  0  0  0  0
 15 18  1  0  0  0  0
 18 19  1  0  0  0  0
 18 20  1  0  0  0  0
  1 21  1  0  0  0  0
 18 21  1  0  0  0  0
 21 22  1  0  0  0  0
 21 23  1  0  0  0  0
 13 24  1  0  0  0  0
 24 25  1  0  0  0  0
M  END
> <VM2 Rank>
46

> <Conf_Id>
1660

> <Probability>
0.47

> <Sum Probability>
92.52

> <Delta G>
1.367

> <G>
63.442

> <E>
31.043

> <-TS>
32.399

> <U+W>
10.476

> <U>
12.694

> <W>
-2.219

> <W(PB)>
-4.362

> <W(SA)>
2.143

> <Valence>
17.937

> <Coulomb>
-8.339

> <VdW>
3.097

> <VdW6>
-12.392

> <VdW12>
15.489

> <Bond>
0.441

> <Angle>
4.414

> <Pdih>
13.082

> <Idih>
0.000

> <Tether>
0.000

$$$$
VeraChem MOL file


 25 25  0  0  0  0  0  0  0  0999 V2000     
   20.5183   19.2016   20.7378 C   0  0  0  0  0  0  0  0  0  0  0  0
   20.9311   19.3757   19.7345 H   0  0  0  0  0  0  0  0  0  0  0  0
   19.5771   18.6600   20.5732 H   0  0  0  0  0  0  0  0  0  0  0  0
   21.5388   18.3133   21.4932 C   0  0  0  0  0  0  0  0  0  0  0  0
   22.0746   17.7063   20.7505 H   0  0  0  0  0  0  0  0  0  0  0  0
   22.3137   18.9403   21.9525 H   0  0  0  0  0  0  0  0  0  0  0  0
   20.9406   17.3302   22.5345 C   0  0  0  0  0  0  0  0  0  0  0  0
   21.7709   16.8702   23.0877 H   0  0  0  0  0  0  0  0  0  0  0  0
   20.4428   16.5078   22.0029 H   0  0  0  0  0  0  0  0  0  0  0  0
   19.9382   17.9281   23.5522 C   0  0  0  0  0  0  0  0  0  0  0  0
   18.9656   18.0592   23.0666 H   0  0  0  0  0  0  0  0  0  0  0  0
   19.7592   17.1797   24.3359 H   0  0  0  0  0  0  0  0  0  0  0  0
   20.4135   19.2540   24.1972 C   0  0  0  0  0  0  0  0  0  0  0  0
   21.4269   19.4884   23.8491 H   0  0  0  0  0  0  0  0  0  0  0  0
   19.5021   20.4614   23.8784 C   0  0  0  0  0  0  0  0  0  0  0  0
   18.5823   20.3809   24.4731 H   0  0  0  0  0  0  0  0  0  0  0  0
   20.0097   21.3707   24.2256 H   0  0  0  0  0  0  0  0  0  0  0  0
   19.1002   20.6610   22.3914 C   0  0  0  0  0  0  0  0  0  0  0  0
   18.6301   21.6511   22.3153 H   0  0  0  0  0  0  0  0  0  0  0  0
   18.3109   19.9540   22.1056 H   0  0  0  0  0  0  0  0  0  0  0  0
   20.2593   20.6004   21.3649 C   0  0  0  0  0  0  0  0  0  0  0  0
   21.1803   21.0226   21.7889 H   0  0  0  0  0  0  0  0  0  0  0  0
   19.9867   21.2721   20.5391 H   0  0  0  0  0  0  0  0  0  0  0  0
   20.4530   19.0930   25.6105 O   0  0  0  0  0  0  0  0  0  0  0  0
   20.7987   19.9318   25.9809 H   0  0  0  0  0  0  0  0  0  0  0  0
  1  2  1  0  0  0  0
  1  3  1  0  0  0  0
  1  4  1  0  0  0  0
  4  5  1  0  0  0  0
  4  6  1  0  0  0  0
  4  7  1  0  0  0  0
  7  8  1  0  0  0  0
  7  9  1  0  0  0  0
  7 10  1  0  0  0  0
 10 11  1  0  0  0  0
 10 12  1  0  0  0  0
 10 13  1  0  0  0  0
 13 14  1  0  0  0  0
 13 15  1  0  0  0  0
 15 16  1  0  0  0  0
 15 17  1  0  0  0  0
 15 18  1  0  0  0  0
 18 19  1  0  0  0  0
 18 20  1  0  0  0  0
  1 21  1  0  0  0  0
 18 21  1  0  0  0  0
 21 22  1  0  0  0  0
 21 23  1  0  0  0  0
 13 24  1  0  0  0  0
 24 25  1  0  0  0  0
M  END
> <VM2 Rank>
47

> <Conf_Id>
827

> <Probability>
0.47

> <Sum Probability>
92.99

> <Delta G>
1.373

> <G>
63.448

> <E>
31.049

> <-TS>
32.399

> <U+W>
10.482

> <U>
12.694

> <W>
-2.213

> <W(PB)>
-4.351

> <W(SA)>
2.138

> <Valence>
17.937

> <Coulomb>
-8.339

> <VdW>
3.096

> <VdW6>
-12.392

> <VdW12>
15.489

> <Bond>
0.441

> <Angle>
4.414

> <Pdih>
13.082

> <Idih>
0.000

> <Tether>
0.000

$$$$
VeraChem MOL file


 25 25  0  0  0  0  0  0  0  0999 V2000     
   20.5100   19.1574   20.7199 C   0  0  0  0  0  0  0  0  0  0  0  0
   21.4884   19.0597   20.2302 H   0  0  0  0  0  0  0  0  0  0  0  0
   19.7712   19.1552   19.9069 H   0  0  0  0  0  0  0  0  0  0  0  0
   20.2416   17.9027   21.5864 C   0  0  0  0  0  0  0  0  0  0  0  0
   19.2258   17.9345   21.9907 H   0  0  0  0  0  0  0  0  0  0  0  0
   20.2320   17.0381   20.9086 H   0  0  0  0  0  0  0  0  0  0  0  0
   21.2782   17.5936   22.6973 C   0  0  0  0  0  0  0  0  0  0  0  0
   22.2391   17.3601   22.2192 H   0  0  0  0  0  0  0  0  0  0  0  0
   20.9696   16.6651   23.1972 H   0  0  0  0  0  0  0  0  0  0  0  0
   21.5338   18.6713   23.7900 C   0  0  0  0  0  0  0  0  0  0  0  0
   22.1602   18.2007   24.5589 H   0  0  0  0  0  0  0  0  0  0  0  0
   22.1633   19.4718   23.3878 H   0  0  0  0  0  0  0  0  0  0  0  0
   20.3075   19.2841   24.5173 C   0  0  0  0  0  0  0  0  0  0  0  0
   20.6341   19.4979   25.5453 H   0  0  0  0  0  0  0  0  0  0  0  0
   19.8133   20.6412   23.9538 C   0  0  0  0  0  0  0  0  0  0  0  0
   18.9955   20.9849   24.6008 H   0  0  0  0  0  0  0  0  0  0  0  0
   20.6128   21.3824   24.0820 H   0  0  0  0  0  0  0  0  0  0  0  0
   19.3137   20.6946   22.4840 C   0  0  0  0  0  0  0  0  0  0  0  0
   18.8634   21.6860   22.3391 H   0  0  0  0  0  0  0  0  0  0  0  0
   18.4913   19.9884   22.3184 H   0  0  0  0  0  0  0  0  0  0  0  0
   20.4325   20.5383   21.4208 C   0  0  0  0  0  0  0  0  0  0  0  0
   21.4058   20.8043   21.8489 H   0  0  0  0  0  0  0  0  0  0  0  0
   20.2675   21.2900   20.6367 H   0  0  0  0  0  0  0  0  0  0  0  0
   19.2333   18.3598   24.5905 O   0  0  0  0  0  0  0  0  0  0  0  0
   19.1114   18.0484   23.6737 H   0  0  0  0  0  0  0  0  0  0  0  0
  1  2  1  0  0  0  0
  1  3  1  0  0  0  0
  1  4  1  0  0  0  0
  4  5  1  0  0  0  0
  4  6  1  0  0  0  0
  4  7  1  0  0  0  0
  7  8  1  0  0  0  0
  7  9  1  0  0  0  0
  7 10  1  0  0  0  0
 10 11  1  0  0  0  0
 10 12  1  0  0  0  0
 10 13  1  0  0  0  0
 13 14  1  0  0  0  0
 13 15  1  0  0  0  0
 15 16  1  0  0  0  0
 15 17  1  0  0  0  0
 15 18  1  0  0  0  0
 18 19  1  0  0  0  0
 18 20  1  0  0  0  0
  1 21  1  0  0  0  0
 18 21  1  0  0  0  0
 21 22  1  0  0  0  0
 21 23  1  0  0  0  0
 13 24  1  0  0  0  0
 24 25  1  0  0  0  0
M  END
> <VM2 Rank>
48

> <Conf_Id>
1052

> <Probability>
0.47

> <Sum Probability>
93.46

> <Delta G>
1.374

> <G>
63.449

> <E>
30.675

> <-TS>
32.774

> <U+W>
10.108

> <U>
11.292

> <W>
-1.184

> <W(PB)>
-3.298

> <W(SA)>
2.114

> <Valence>
18.277

> <Coulomb>
-9.503

> <VdW>
2.517

> <VdW6>
-13.881

> <VdW12>
16.398

> <Bond>
0.507

> <Angle>
7.442

> <Pdih>
10.329

> <Idih>
0.000

> <Tether>
0.000

$$$$
VeraChem MOL file


 25 25  0  0  0  0  0  0  0  0999 V2000     
   20.4138   19.3581   20.7174 C   0  0  0  0  0  0  0  0  0  0  0  0
   21.0019   20.1390   20.2167 H   0  0  0  0  0  0  0  0  0  0  0  0
   19.9182   18.7991   19.9118 H   0  0  0  0  0  0  0  0  0  0  0  0
   21.3801   18.3837   21.4391 C   0  0  0  0  0  0  0  0  0  0  0  0
   21.8282   17.7424   20.6678 H   0  0  0  0  0  0  0  0  0  0  0  0
   22.2301   18.9318   21.8613 H   0  0  0  0  0  0  0  0  0  0  0  0
   20.7384   17.4694   22.5156 C   0  0  0  0  0  0  0  0  0  0  0  0
   21.1693   16.4668   22.3897 H   0  0  0  0  0  0  0  0  0  0  0  0
   19.6633   17.3334   22.3479 H   0  0  0  0  0  0  0  0  0  0  0  0
   21.0291   17.9001   23.9794 C   0  0  0  0  0  0  0  0  0  0  0  0
   20.7303   17.0751   24.6394 H   0  0  0  0  0  0  0  0  0  0  0  0
   22.1149   17.9949   24.1105 H   0  0  0  0  0  0  0  0  0  0  0  0
   20.3557   19.1884   24.5181 C   0  0  0  0  0  0  0  0  0  0  0  0
   20.7295   19.3038   25.5457 H   0  0  0  0  0  0  0  0  0  0  0  0
   20.7307   20.4952   23.7697 C   0  0  0  0  0  0  0  0  0  0  0  0
   20.8011   21.2883   24.5254 H   0  0  0  0  0  0  0  0  0  0  0  0
   21.7480   20.4152   23.3729 H   0  0  0  0  0  0  0  0  0  0  0  0
   19.7659   21.0124   22.6640 C   0  0  0  0  0  0  0  0  0  0  0  0
   20.2418   21.8720   22.1730 H   0  0  0  0  0  0  0  0  0  0  0  0
   18.8694   21.4175   23.1534 H   0  0  0  0  0  0  0  0  0  0  0  0
   19.3014   20.0187   21.5682 C   0  0  0  0  0  0  0  0  0  0  0  0
   18.6582   20.5816   20.8779 H   0  0  0  0  0  0  0  0  0  0  0  0
   18.6398   19.2529   21.9830 H   0  0  0  0  0  0  0  0  0  0  0  0
   18.9488   19.0171   24.5885 O   0  0  0  0  0  0  0  0  0  0  0  0
   18.6401   19.1208   23.6685 H   0  0  0  0  0  0  0  0  0  0  0  0
  1  2  1  0  0  0  0
  1  3  1  0  0  0  0
  1  4  1  0  0  0  0
  4  5  1  0  0  0  0
  4  6  1  0  0  0  0
  4  7  1  0  0  0  0
  7  8  1  0  0  0  0
  7  9  1  0  0  0  0
  7 10  1  0  0  0  0
 10 11  1  0  0  0  0
 10 12  1  0  0  0  0
 10 13  1  0  0  0  0
 13 14  1  0  0  0  0
 13 15  1  0  0  0  0
 15 16  1  0  0  0  0
 15 17  1  0  0  0  0
 15 18  1  0  0  0  0
 18 19  1  0  0  0  0
 18 20  1  0  0  0  0
  1 21  1  0  0  0  0
 18 21  1  0  0  0  0
 21 22  1  0  0  0  0
 21 23  1  0  0  0  0
 13 24  1  0  0  0  0
 24 25  1  0  0  0  0
M  END
> <VM2 Rank>
49

> <Conf_Id>
997

> <Probability>
0.45

> <Sum Probability>
93.91

> <Delta G>
1.398

> <G>
63.474

> <E>
30.700

> <-TS>
32.774

> <U+W>
10.132

> <U>
11.292

> <W>
-1.159

> <W(PB)>
-3.281

> <W(SA)>
2.122

> <Valence>
18.277

> <Coulomb>
-9.503

> <VdW>
2.518

> <VdW6>
-13.881

> <VdW12>
16.399

> <Bond>
0.507

> <Angle>
7.441

> <Pdih>
10.329

> <Idih>
0.000

> <Tether>
0.000

$$$$
VeraChem MOL file


 25 25  0  0  0  0  0  0  0  0999 V2000     
   20.4619   19.3497   20.7383 C   0  0  0  0  0  0  0  0  0  0  0  0
   20.8791   19.5203   19.7363 H   0  0  0  0  0  0  0  0  0  0  0  0
   19.4218   19.0399   20.5696 H   0  0  0  0  0  0  0  0  0  0  0  0
   21.2926   18.2032   21.3805 C   0  0  0  0  0  0  0  0  0  0  0  0
   21.5973   17.5361   20.5622 H   0  0  0  0  0  0  0  0  0  0  0  0
   22.2302   18.5832   21.8081 H   0  0  0  0  0  0  0  0  0  0  0  0
   20.5310   17.3300   22.4091 C   0  0  0  0  0  0  0  0  0  0  0  0
   20.9265   16.3069   22.3451 H   0  0  0  0  0  0  0  0  0  0  0  0
   19.4771   17.2414   22.1160 H   0  0  0  0  0  0  0  0  0  0  0  0
   20.6519   17.7719   23.8932 C   0  0  0  0  0  0  0  0  0  0  0  0
   19.9607   17.1603   24.4879 H   0  0  0  0  0  0  0  0  0  0  0  0
   21.6596   17.5227   24.2508 H   0  0  0  0  0  0  0  0  0  0  0  0
   20.4008   19.2667   24.1972 C   0  0  0  0  0  0  0  0  0  0  0  0
   21.2728   19.8353   23.8522 H   0  0  0  0  0  0  0  0  0  0  0  0
   19.1176   19.8320   23.5379 C   0  0  0  0  0  0  0  0  0  0  0  0
   18.5469   19.0338   23.0512 H   0  0  0  0  0  0  0  0  0  0  0  0
   18.4437   20.2276   24.3095 H   0  0  0  0  0  0  0  0  0  0  0  0
   19.3854   20.9617   22.5134 C   0  0  0  0  0  0  0  0  0  0  0  0
   19.6218   21.8844   23.0609 H   0  0  0  0  0  0  0  0  0  0  0  0
   18.4511   21.1653   21.9726 H   0  0  0  0  0  0  0  0  0  0  0  0
   20.5176   20.7075   21.4829 C   0  0  0  0  0  0  0  0  0  0  0  0
   21.5025   20.8393   21.9489 H   0  0  0  0  0  0  0  0  0  0  0  0
   20.4540   21.5079   20.7330 H   0  0  0  0  0  0  0  0  0  0  0  0
   20.3052   19.4205   25.6075 O   0  0  0  0  0  0  0  0  0  0  0  0
   19.5222   18.9049   25.8901 H   0  0  0  0  0  0  0  0  0  0  0  0
  1  2  1  0  0  0  0
  1  3  1  0  0  0  0
  1  4  1  0  0  0  0
  4  5  1  0  0  0  0
  4  6  1  0  0  0  0
  4  7  1  0  0  0  0
  7  8  1  0  0  0  0
  7  9  1  0  0  0  0
  7 10  1  0  0  0  0
 10 11  1  0  0  0  0
 10 12  1  0  0  0  0
 10 13  1  0  0  0  0
 13 14  1  0  0  0  0
 13 15  1  0  0  0  0
 15 16  1  0  0  0  0
 15 17  1  0  0  0  0
 15 18  1  0  0  0  0
 18 19  1  0  0  0  0
 18 20  1  0  0  0  0
  1 21  1  0  0  0  0
 18 21  1  0  0  0  0
 21 22  1  0  0  0  0
 21 23  1  0  0  0  0
 13 24  1  0  0  0  0
 24 25  1  0  0  0  0
M  END
> <VM2 Rank>
50

> <Conf_Id>
1367

> <Probability>
0.38

> <Sum Probability>
94.30

> <Delta G>
1.493

> <G>
63.569

> <E>
31.181

> <-TS>
32.388

> <U+W>
10.613

> <U>
12.707

> <W>
-2.094

> <W(PB)>
-4.240

> <W(SA)>
2.146

> <Valence>
18.320

> <Coulomb>
-8.639

> <VdW>
3.026

> <VdW6>
-12.424

> <VdW12>
15.450

> <Bond>
0.436

> <Angle>
4.453

> <Pdih>
13.431

> <Idih>
0.000

> <Tether>
0.000

$$$$
VeraChem MOL file


 25 25  0  0  0  0  0  0  0  0999 V2000     
   20.5180   19.2012   20.7385 C   0  0  0  0  0  0  0  0  0  0  0  0
   19.5769   18.6594   20.5746 H   0  0  0  0  0  0  0  0  0  0  0  0
   20.9304   19.3747   19.7350 H   0  0  0  0  0  0  0  0  0  0  0  0
   21.5391   18.3141   21.4944 C   0  0  0  0  0  0  0  0  0  0  0  0
   22.0762   17.7079   20.7519 H   0  0  0  0  0  0  0  0  0  0  0  0
   22.3130   18.9420   21.9543 H   0  0  0  0  0  0  0  0  0  0  0  0
   20.9416   17.3302   22.5352 C   0  0  0  0  0  0  0  0  0  0  0  0
   21.7723   16.8717   23.0890 H   0  0  0  0  0  0  0  0  0  0  0  0
   20.4458   16.5070   22.0030 H   0  0  0  0  0  0  0  0  0  0  0  0
   19.9372   17.9264   23.5518 C   0  0  0  0  0  0  0  0  0  0  0  0
   18.9663   18.0576   23.0624 H   0  0  0  0  0  0  0  0  0  0  0  0
   19.7584   17.1742   24.3317 H   0  0  0  0  0  0  0  0  0  0  0  0
   20.4114   19.2530   24.1968 C   0  0  0  0  0  0  0  0  0  0  0  0
   21.4248   19.4890   23.8504 H   0  0  0  0  0  0  0  0  0  0  0  0
   19.5019   20.4618   23.8781 C   0  0  0  0  0  0  0  0  0  0  0  0
   18.5816   20.3892   24.4725 H   0  0  0  0  0  0  0  0  0  0  0  0
   20.0154   21.3676   24.2263 H   0  0  0  0  0  0  0  0  0  0  0  0
   19.1003   20.6621   22.3913 C   0  0  0  0  0  0  0  0  0  0  0  0
   18.6318   21.6530   22.3155 H   0  0  0  0  0  0  0  0  0  0  0  0
   18.3100   19.9564   22.1050 H   0  0  0  0  0  0  0  0  0  0  0  0
   20.2592   20.6005   21.3647 C   0  0  0  0  0  0  0  0  0  0  0  0
   21.1803   21.0226   21.7888 H   0  0  0  0  0  0  0  0  0  0  0  0
   19.9870   21.2718   20.5386 H   0  0  0  0  0  0  0  0  0  0  0  0
   20.4552   19.0936   25.6092 O   0  0  0  0  0  0  0  0  0  0  0  0
   19.5416   18.8852   25.8930 H   0  0  0  0  0  0  0  0  0  0  0  0
  1  2  1  0  0  0  0
  1  3  1  0  0  0  0
  1  4  1  0  0  0  0
  4  5  1  0  0  0  0
  4  6  1  0  0  0  0
  4  7  1  0  0  0  0
  7  8  1  0  0  0  0
  7  9  1  0  0  0  0
  7 10  1  0  0  0  0
 10 11  1  0  0  0  0
 10 12  1  0  0  0  0
 10 13  1  0  0  0  0
 13 14  1  0  0  0  0
 13 15  1  0  0  0  0
 15 16  1  0  0  0  0
 15 17  1  0  0  0  0
 15 18  1  0  0  0  0
 18 19  1  0  0  0  0
 18 20  1  0  0  0  0
  1 21  1  0  0  0  0
 18 21  1  0  0  0  0
 21 22  1  0  0  0  0
 21 23  1  0  0  0  0
 13 24  1  0  0  0  0
 24 25  1  0  0  0  0
M  END
> <VM2 Rank>
51

> <Conf_Id>
199

> <Probability>
0.38

> <Sum Probability>
94.68

> <Delta G>
1.500

> <G>
63.576

> <E>
31.187

> <-TS>
32.388

> <U+W>
10.620

> <U>
12.707

> <W>
-2.087

> <W(PB)>
-4.226

> <W(SA)>
2.139

> <Valence>
18.320

> <Coulomb>
-8.639

> <VdW>
3.026

> <VdW6>
-12.424

> <VdW12>
15.450

> <Bond>
0.436

> <Angle>
4.453

> <Pdih>
13.431

> <Idih>
0.000

> <Tether>
0.000

$$$$
VeraChem MOL file


 25 25  0  0  0  0  0  0  0  0999 V2000     
   20.9471   19.3949   20.7688 C   0  0  0  0  0  0  0  0  0  0  0  0
   21.0446   19.4277   19.6750 H   0  0  0  0  0  0  0  0  0  0  0  0
   21.8689   19.8561   21.1455 H   0  0  0  0  0  0  0  0  0  0  0  0
   20.8796   17.8984   21.1731 C   0  0  0  0  0  0  0  0  0  0  0  0
   20.1607   17.3861   20.5193 H   0  0  0  0  0  0  0  0  0  0  0  0
   21.8557   17.4421   20.9590 H   0  0  0  0  0  0  0  0  0  0  0  0
   20.5005   17.5943   22.6423 C   0  0  0  0  0  0  0  0  0  0  0  0
   20.6978   16.5308   22.8340 H   0  0  0  0  0  0  0  0  0  0  0  0
   19.4176   17.7069   22.7676 H   0  0  0  0  0  0  0  0  0  0  0  0
   21.2787   18.4420   23.6840 C   0  0  0  0  0  0  0  0  0  0  0  0
   21.8090   17.7647   24.3668 H   0  0  0  0  0  0  0  0  0  0  0  0
   22.0739   19.0207   23.2019 H   0  0  0  0  0  0  0  0  0  0  0  0
   20.4052   19.3968   24.5304 C   0  0  0  0  0  0  0  0  0  0  0  0
   21.0817   20.0997   25.0372 H   0  0  0  0  0  0  0  0  0  0  0  0
   19.3461   20.2267   23.7613 C   0  0  0  0  0  0  0  0  0  0  0  0
   18.4868   19.6045   23.4827 H   0  0  0  0  0  0  0  0  0  0  0  0
   18.9455   20.9589   24.4748 H   0  0  0  0  0  0  0  0  0  0  0  0
   19.8548   21.0069   22.5216 C   0  0  0  0  0  0  0  0  0  0  0  0
   19.2404   21.9145   22.4433 H   0  0  0  0  0  0  0  0  0  0  0  0
   20.8812   21.3643   22.6795 H   0  0  0  0  0  0  0  0  0  0  0  0
   19.7237   20.2582   21.1660 C   0  0  0  0  0  0  0  0  0  0  0  0
   19.6102   21.0262   20.3885 H   0  0  0  0  0  0  0  0  0  0  0  0
   18.7992   19.6667   21.1266 H   0  0  0  0  0  0  0  0  0  0  0  0
   19.7284   18.6247   25.5124 O   0  0  0  0  0  0  0  0  0  0  0  0
   19.2492   17.9269   25.0211 H   0  0  0  0  0  0  0  0  0  0  0  0
  1  2  1  0  0  0  0
  1  3  1  0  0  0  0
  1  4  1  0  0  0  0
  4  5  1  0  0  0  0
  4  6  1  0  0  0  0
  4  7  1  0  0  0  0
  7  8  1  0  0  0  0
  7  9  1  0  0  0  0
  7 10  1  0  0  0  0
 10 11  1  0  0  0  0
 10 12  1  0  0  0  0
 10 13  1  0  0  0  0
 13 14  1  0  0  0  0
 13 15  1  0  0  0  0
 15 16  1  0  0  0  0
 15 17  1  0  0  0  0
 15 18  1  0  0  0  0
 18 19  1  0  0  0  0
 18 20  1  0  0  0  0
  1 21  1  0  0  0  0
 18 21  1  0  0  0  0
 21 22  1  0  0  0  0
 21 23  1  0  0  0  0
 13 24  1  0  0  0  0
 24 25  1  0  0  0  0
M  END
> <VM2 Rank>
52

> <Conf_Id>
988

> <Probability>
0.29

> <Sum Probability>
94.97

> <Delta G>
1.650

> <G>
63.726

> <E>
31.413

> <-TS>
32.313

> <U+W>
10.846

> <U>
12.433

> <W>
-1.587

> <W(PB)>
-3.713

> <W(SA)>
2.126

> <Valence>
19.007

> <Coulomb>
-9.373

> <VdW>
2.799

> <VdW6>
-12.597

> <VdW12>
15.396

> <Bond>
0.425

> <Angle>
4.784

> <Pdih>
13.799

> <Idih>
0.000

> <Tether>
0.000

$$$$
VeraChem MOL file


 25 25  0  0  0  0  0  0  0  0999 V2000     
   19.8911   19.0033   20.7943 C   0  0  0  0  0  0  0  0  0  0  0  0
   18.9389   18.6189   21.1813 H   0  0  0  0  0  0  0  0  0  0  0  0
   19.7604   19.0284   19.7038 H   0  0  0  0  0  0  0  0  0  0  0  0
   21.0435   18.0075   21.0897 C   0  0  0  0  0  0  0  0  0  0  0  0
   20.7043   17.0009   20.8097 H   0  0  0  0  0  0  0  0  0  0  0  0
   21.8879   18.2337   20.4243 H   0  0  0  0  0  0  0  0  0  0  0  0
   21.5697   17.9664   22.5446 C   0  0  0  0  0  0  0  0  0  0  0  0
   22.2381   18.8181   22.7171 H   0  0  0  0  0  0  0  0  0  0  0  0
   22.2111   17.0808   22.6502 H   0  0  0  0  0  0  0  0  0  0  0  0
   20.4545   17.9052   23.6207 C   0  0  0  0  0  0  0  0  0  0  0  0
   19.4746   17.7399   23.1593 H   0  0  0  0  0  0  0  0  0  0  0  0
   20.6246   17.0195   24.2466 H   0  0  0  0  0  0  0  0  0  0  0  0
   20.3992   19.1340   24.5574 C   0  0  0  0  0  0  0  0  0  0  0  0
   21.2514   19.0635   25.2485 H   0  0  0  0  0  0  0  0  0  0  0  0
   20.4759   20.5264   23.8794 C   0  0  0  0  0  0  0  0  0  0  0  0
   20.2536   21.2727   24.6540 H   0  0  0  0  0  0  0  0  0  0  0  0
   21.5088   20.7419   23.5808 H   0  0  0  0  0  0  0  0  0  0  0  0
   19.5210   20.7793   22.6822 C   0  0  0  0  0  0  0  0  0  0  0  0
   19.2862   21.8526   22.6862 H   0  0  0  0  0  0  0  0  0  0  0  0
   18.5582   20.2730   22.8286 H   0  0  0  0  0  0  0  0  0  0  0  0
   20.1132   20.4562   21.2826 C   0  0  0  0  0  0  0  0  0  0  0  0
   21.1758   20.7283   21.2281 H   0  0  0  0  0  0  0  0  0  0  0  0
   19.6073   21.1149   20.5634 H   0  0  0  0  0  0  0  0  0  0  0  0
   19.1958   19.0647   25.3092 O   0  0  0  0  0  0  0  0  0  0  0  0
   18.4719   19.2264   24.6713 H   0  0  0  0  0  0  0  0  0  0  0  0
  1  2  1  0  0  0  0
  1  3  1  0  0  0  0
  1  4  1  0  0  0  0
  4  5  1  0  0  0  0
  4  6  1  0  0  0  0
  4  7  1  0  0  0  0
  7  8  1  0  0  0  0
  7  9  1  0  0  0  0
  7 10  1  0  0  0  0
 10 11  1  0  0  0  0
 10 12  1  0  0  0  0
 10 13  1  0  0  0  0
 13 14  1  0  0  0  0
 13 15  1  0  0  0  0
 15 16  1  0  0  0  0
 15 17  1  0  0  0  0
 15 18  1  0  0  0  0
 18 19  1  0  0  0  0
 18 20  1  0  0  0  0
  1 21  1  0  0  0  0
 18 21  1  0  0  0  0
 21 22  1  0  0  0  0
 21 23  1  0  0  0  0
 13 24  1  0  0  0  0
 24 25  1  0  0  0  0
M  END
> <VM2 Rank>
53

> <Conf_Id>
1550

> <Probability>
0.26

> <Sum Probability>
95.23

> <Delta G>
1.717

> <G>
63.792

> <E>
31.518

> <-TS>
32.274

> <U+W>
10.951

> <U>
12.526

> <W>
-1.576

> <W(PB)>
-3.699

> <W(SA)>
2.123

> <Valence>
19.016

> <Coulomb>
-9.226

> <VdW>
2.737

> <VdW6>
-12.612

> <VdW12>
15.349

> <Bond>
0.421

> <Angle>
4.884

> <Pdih>
13.711

> <Idih>
0.000

> <Tether>
0.000

$$$$
VeraChem MOL file


 25 25  0  0  0  0  0  0  0  0999 V2000     
   19.8514   19.0525   20.7982 C   0  0  0  0  0  0  0  0  0  0  0  0
   18.9088   18.6539   21.1939 H   0  0  0  0  0  0  0  0  0  0  0  0
   19.7685   18.9377   19.7087 H   0  0  0  0  0  0  0  0  0  0  0  0
   21.0383   18.1827   21.2814 C   0  0  0  0  0  0  0  0  0  0  0  0
   21.1400   17.3559   20.5650 H   0  0  0  0  0  0  0  0  0  0  0  0
   21.9824   18.7402   21.2173 H   0  0  0  0  0  0  0  0  0  0  0  0
   20.8578   17.5420   22.6852 C   0  0  0  0  0  0  0  0  0  0  0  0
   21.4495   16.6162   22.6888 H   0  0  0  0  0  0  0  0  0  0  0  0
   19.8197   17.2213   22.8409 H   0  0  0  0  0  0  0  0  0  0  0  0
   21.3644   18.4005   23.8748 C   0  0  0  0  0  0  0  0  0  0  0  0
   21.7399   17.7186   24.6496 H   0  0  0  0  0  0  0  0  0  0  0  0
   22.2456   18.9761   23.5670 H   0  0  0  0  0  0  0  0  0  0  0  0
   20.3319   19.3353   24.5566 C   0  0  0  0  0  0  0  0  0  0  0  0
   20.8908   19.9900   25.2406 H   0  0  0  0  0  0  0  0  0  0  0  0
   19.4962   20.2400   23.6222 C   0  0  0  0  0  0  0  0  0  0  0  0
   18.6823   19.6629   23.1695 H   0  0  0  0  0  0  0  0  0  0  0  0
   18.9957   20.9900   24.2486 H   0  0  0  0  0  0  0  0  0  0  0  0
   20.3208   20.9796   22.5366 C   0  0  0  0  0  0  0  0  0  0  0  0
   20.1501   22.0600   22.6388 H   0  0  0  0  0  0  0  0  0  0  0  0
   21.3967   20.8494   22.7016 H   0  0  0  0  0  0  0  0  0  0  0  0
   19.9663   20.5726   21.0861 C   0  0  0  0  0  0  0  0  0  0  0  0
   20.7188   21.0058   20.4132 H   0  0  0  0  0  0  0  0  0  0  0  0
   19.0131   21.0445   20.8112 H   0  0  0  0  0  0  0  0  0  0  0  0
   19.4368   18.5378   25.3189 O   0  0  0  0  0  0  0  0  0  0  0  0
   19.0338   17.9091   24.6868 H   0  0  0  0  0  0  0  0  0  0  0  0
  1  2  1  0  0  0  0
  1  3  1  0  0  0  0
  1  4  1  0  0  0  0
  4  5  1  0  0  0  0
  4  6  1  0  0  0  0
  4  7  1  0  0  0  0
  7  8  1  0  0  0  0
  7  9  1  0  0  0  0
  7 10  1  0  0  0  0
 10 11  1  0  0  0  0
 10 12  1  0  0  0  0
 10 13  1  0  0  0  0
 13 14  1  0  0  0  0
 13 15  1  0  0  0  0
 15 16  1  0  0  0  0
 15 17  1  0  0  0  0
 15 18  1  0  0  0  0
 18 19  1  0  0  0  0
 18 20  1  0  0  0  0
  1 21  1  0  0  0  0
 18 21  1  0  0  0  0
 21 22  1  0  0  0  0
 21 23  1  0  0  0  0
 13 24  1  0  0  0  0
 24 25  1  0  0  0  0
M  END
> <VM2 Rank>
54

> <Conf_Id>
638

> <Probability>
0.26

> <Sum Probability>
95.49

> <Delta G>
1.725

> <G>
63.800

> <E>
31.526

> <-TS>
32.274

> <U+W>
10.958

> <U>
12.527

> <W>
-1.568

> <W(PB)>
-3.703

> <W(SA)>
2.135

> <Valence>
19.016

> <Coulomb>
-9.226

> <VdW>
2.737

> <VdW6>
-12.612

> <VdW12>
15.349

> <Bond>
0.421

> <Angle>
4.883

> <Pdih>
13.712

> <Idih>
0.000

> <Tether>
0.000

$$$$
VeraChem MOL file


 25 25  0  0  0  0  0  0  0  0999 V2000     
   20.9244   19.5418   20.7804 C   0  0  0  0  0  0  0  0  0  0  0  0
   21.0342   19.5934   19.6885 H   0  0  0  0  0  0  0  0  0  0  0  0
   21.8959   19.8659   21.1746 H   0  0  0  0  0  0  0  0  0  0  0  0
   20.6640   18.0642   21.1657 C   0  0  0  0  0  0  0  0  0  0  0  0
   19.5928   17.8286   21.1078 H   0  0  0  0  0  0  0  0  0  0  0  0
   21.1395   17.4452   20.3925 H   0  0  0  0  0  0  0  0  0  0  0  0
   21.2643   17.6205   22.5289 C   0  0  0  0  0  0  0  0  0  0  0  0
   22.2399   18.0931   22.7050 H   0  0  0  0  0  0  0  0  0  0  0  0
   21.4732   16.5449   22.4483 H   0  0  0  0  0  0  0  0  0  0  0  0
   20.3329   17.8058   23.7547 C   0  0  0  0  0  0  0  0  0  0  0  0
   19.2901   17.6394   23.4584 H   0  0  0  0  0  0  0  0  0  0  0  0
   20.5562   17.0012   24.4677 H   0  0  0  0  0  0  0  0  0  0  0  0
   20.4821   19.1376   24.5333 C   0  0  0  0  0  0  0  0  0  0  0  0
   21.4493   19.1165   25.0556 H   0  0  0  0  0  0  0  0  0  0  0  0
   20.4377   20.4347   23.6929 C   0  0  0  0  0  0  0  0  0  0  0  0
   20.3224   21.2850   24.3783 H   0  0  0  0  0  0  0  0  0  0  0  0
   21.4168   20.5907   23.2273 H   0  0  0  0  0  0  0  0  0  0  0  0
   19.3050   20.4890   22.6330 C   0  0  0  0  0  0  0  0  0  0  0  0
   18.6891   21.3793   22.8194 H   0  0  0  0  0  0  0  0  0  0  0  0
   18.6172   19.6428   22.7429 H   0  0  0  0  0  0  0  0  0  0  0  0
   19.8117   20.5498   21.1721 C   0  0  0  0  0  0  0  0  0  0  0  0
   20.1823   21.5639   20.9692 H   0  0  0  0  0  0  0  0  0  0  0  0
   18.9518   20.4069   20.5036 H   0  0  0  0  0  0  0  0  0  0  0  0
   19.4419   19.1995   25.4990 O   0  0  0  0  0  0  0  0  0  0  0  0
   18.6176   19.3562   24.9952 H   0  0  0  0  0  0  0  0  0  0  0  0
  1  2  1  0  0  0  0
  1  3  1  0  0  0  0
  1  4  1  0  0  0  0
  4  5  1  0  0  0  0
  4  6  1  0  0  0  0
  4  7  1  0  0  0  0
  7  8  1  0  0  0  0
  7  9  1  0  0  0  0
  7 10  1  0  0  0  0
 10 11  1  0  0  0  0
 10 12  1  0  0  0  0
 10 13  1  0  0  0  0
 13 14  1  0  0  0  0
 13 15  1  0  0  0  0
 15 16  1  0  0  0  0
 15 17  1  0  0  0  0
 15 18  1  0  0  0  0
 18 19  1  0  0  0  0
 18 20  1  0  0  0  0
  1 21  1  0  0  0  0
 18 21  1  0  0  0  0
 21 22  1  0  0  0  0
 21 23  1  0  0  0  0
 13 24  1  0  0  0  0
 24 25  1  0  0  0  0
M  END
> <VM2 Rank>
55

> <Conf_Id>
2003

> <Probability>
0.26

> <Sum Probability>
95.75

> <Delta G>
1.726

> <G>
63.802

> <E>
31.489

> <-TS>
32.313

> <U+W>
10.921

> <U>
12.433

> <W>
-1.511

> <W(PB)>
-3.669

> <W(SA)>
2.157

> <Valence>
19.007

> <Coulomb>
-9.373

> <VdW>
2.799

> <VdW6>
-12.597

> <VdW12>
15.396

> <Bond>
0.425

> <Angle>
4.785

> <Pdih>
13.798

> <Idih>
0.000

> <Tether>
0.000

$$$$
VeraChem MOL file


 25 25  0  0  0  0  0  0  0  0999 V2000     
   19.6607   18.8815   21.1203 C   0  0  0  0  0  0  0  0  0  0  0  0
   18.8770   18.3417   21.6608 H   0  0  0  0  0  0  0  0  0  0  0  0
   19.3883   18.7428   20.0647 H   0  0  0  0  0  0  0  0  0  0  0  0
   21.0394   18.2087   21.3386 C   0  0  0  0  0  0  0  0  0  0  0  0
   21.1386   17.4236   20.5764 H   0  0  0  0  0  0  0  0  0  0  0  0
   21.8614   18.9057   21.1323 H   0  0  0  0  0  0  0  0  0  0  0  0
   21.2270   17.5165   22.7135 C   0  0  0  0  0  0  0  0  0  0  0  0
   22.1244   16.8879   22.6348 H   0  0  0  0  0  0  0  0  0  0  0  0
   20.4045   16.8107   22.8911 H   0  0  0  0  0  0  0  0  0  0  0  0
   21.4263   18.4340   23.9552 C   0  0  0  0  0  0  0  0  0  0  0  0
   21.7561   17.7845   24.7765 H   0  0  0  0  0  0  0  0  0  0  0  0
   22.2672   19.1180   23.7877 H   0  0  0  0  0  0  0  0  0  0  0  0
   20.1957   19.2185   24.4861 C   0  0  0  0  0  0  0  0  0  0  0  0
   20.3199   19.2964   25.5759 H   0  0  0  0  0  0  0  0  0  0  0  0
   20.0553   20.6742   23.9777 C   0  0  0  0  0  0  0  0  0  0  0  0
   19.0241   21.0158   24.1388 H   0  0  0  0  0  0  0  0  0  0  0  0
   20.6717   21.3018   24.6344 H   0  0  0  0  0  0  0  0  0  0  0  0
   20.4806   20.9905   22.5210 C   0  0  0  0  0  0  0  0  0  0  0  0
   21.5335   20.7346   22.3594 H   0  0  0  0  0  0  0  0  0  0  0  0
   20.4481   22.0834   22.4146 H   0  0  0  0  0  0  0  0  0  0  0  0
   19.5885   20.4069   21.3965 C   0  0  0  0  0  0  0  0  0  0  0  0
   19.8788   20.9168   20.4676 H   0  0  0  0  0  0  0  0  0  0  0  0
   18.5426   20.6941   21.5706 H   0  0  0  0  0  0  0  0  0  0  0  0
   18.9907   18.5121   24.2510 O   0  0  0  0  0  0  0  0  0  0  0  0
   18.9310   18.4689   23.2784 H   0  0  0  0  0  0  0  0  0  0  0  0
  1  2  1  0  0  0  0
  1  3  1  0  0  0  0
  1  4  1  0  0  0  0
  4  5  1  0  0  0  0
  4  6  1  0  0  0  0
  4  7  1  0  0  0  0
  7  8  1  0  0  0  0
  7  9  1  0  0  0  0
  7 10  1  0  0  0  0
 10 11  1  0  0  0  0
 10 12  1  0  0  0  0
 10 13  1  0  0  0  0
 13 14  1  0  0  0  0
 13 15  1  0  0  0  0
 15 16  1  0  0  0  0
 15 17  1  0  0  0  0
 15 18  1  0  0  0  0
 18 19  1  0  0  0  0
 18 20  1  0  0  0  0
  1 21  1  0  0  0  0
 18 21  1  0  0  0  0
 21 22  1  0  0  0  0
 21 23  1  0  0  0  0
 13 24  1  0  0  0  0
 24 25  1  0  0  0  0
M  END
> <VM2 Rank>
56

> <Conf_Id>
350

> <Probability>
0.19

> <Sum Probability>
95.95

> <Delta G>
1.897

> <G>
63.972

> <E>
31.774

> <-TS>
32.198

> <U+W>
11.207

> <U>
12.093

> <W>
-0.886

> <W(PB)>
-2.996

> <W(SA)>
2.110

> <Valence>
19.645

> <Coulomb>
-9.930

> <VdW>
2.377

> <VdW6>
-13.909

> <VdW12>
16.286

> <Bond>
0.498

> <Angle>
8.148

> <Pdih>
11.000

> <Idih>
0.000

> <Tether>
0.000

$$$$
VeraChem MOL file


 25 25  0  0  0  0  0  0  0  0999 V2000     
   20.8691   19.4383   20.6004 C   0  0  0  0  0  0  0  0  0  0  0  0
   21.6684   20.1262   20.2927 H   0  0  0  0  0  0  0  0  0  0  0  0
   20.5543   18.9203   19.6842 H   0  0  0  0  0  0  0  0  0  0  0  0
   21.4746   18.3948   21.5713 C   0  0  0  0  0  0  0  0  0  0  0  0
   22.1302   17.7323   20.9898 H   0  0  0  0  0  0  0  0  0  0  0  0
   22.1451   18.8959   22.2790 H   0  0  0  0  0  0  0  0  0  0  0  0
   20.4270   17.5270   22.3137 C   0  0  0  0  0  0  0  0  0  0  0  0
   20.6466   16.4679   22.1220 H   0  0  0  0  0  0  0  0  0  0  0  0
   19.4233   17.6834   21.9017 H   0  0  0  0  0  0  0  0  0  0  0  0
   20.4012   17.7419   23.8482 C   0  0  0  0  0  0  0  0  0  0  0  0
   19.5153   17.2358   24.2543 H   0  0  0  0  0  0  0  0  0  0  0  0
   21.2679   17.2292   24.2853 H   0  0  0  0  0  0  0  0  0  0  0  0
   20.4202   19.2075   24.3500 C   0  0  0  0  0  0  0  0  0  0  0  0
   21.4138   19.6387   24.1691 H   0  0  0  0  0  0  0  0  0  0  0  0
   19.3554   20.1342   23.7136 C   0  0  0  0  0  0  0  0  0  0  0  0
   18.4536   19.5619   23.4611 H   0  0  0  0  0  0  0  0  0  0  0  0
   19.0355   20.8590   24.4740 H   0  0  0  0  0  0  0  0  0  0  0  0
   19.8497   20.9578   22.4909 C   0  0  0  0  0  0  0  0  0  0  0  0
   20.8897   21.2845   22.6254 H   0  0  0  0  0  0  0  0  0  0  0  0
   19.2551   21.8814   22.4672 H   0  0  0  0  0  0  0  0  0  0  0  0
   19.6637   20.2686   21.1164 C   0  0  0  0  0  0  0  0  0  0  0  0
   19.4722   21.0515   20.3698 H   0  0  0  0  0  0  0  0  0  0  0  0
   18.7503   19.6603   21.1228 H   0  0  0  0  0  0  0  0  0  0  0  0
   20.2032   19.1730   25.7557 O   0  0  0  0  0  0  0  0  0  0  0  0
   20.2961   20.0937   26.0784 H   0  0  0  0  0  0  0  0  0  0  0  0
  1  2  1  0  0  0  0
  1  3  1  0  0  0  0
  1  4  1  0  0  0  0
  4  5  1  0  0  0  0
  4  6  1  0  0  0  0
  4  7  1  0  0  0  0
  7  8  1  0  0  0  0
  7  9  1  0  0  0  0
  7 10  1  0  0  0  0
 10 11  1  0  0  0  0
 10 12  1  0  0  0  0
 10 13  1  0  0  0  0
 13 14  1  0  0  0  0
 13 15  1  0  0  0  0
 15 16  1  0  0  0  0
 15 17  1  0  0  0  0
 15 18  1  0  0  0  0
 18 19  1  0  0  0  0
 18 20  1  0  0  0  0
  1 21  1  0  0  0  0
 18 21  1  0  0  0  0
 21 22  1  0  0  0  0
 21 23  1  0  0  0  0
 13 24  1  0  0  0  0
 24 25  1  0  0  0  0
M  END
> <VM2 Rank>
57

> <Conf_Id>
1202

> <Probability>
0.19

> <Sum Probability>
96.14

> <Delta G>
1.907

> <G>
63.982

> <E>
31.698

> <-TS>
32.284

> <U+W>
11.130

> <U>
13.296

> <W>
-2.166

> <W(PB)>
-4.311

> <W(SA)>
2.146

> <Valence>
18.607

> <Coulomb>
-8.339

> <VdW>
3.028

> <VdW6>
-12.271

> <VdW12>
15.299

> <Bond>
0.424

> <Angle>
4.487

> <Pdih>
13.696

> <Idih>
0.000

> <Tether>
0.000

$$$$
VeraChem MOL file


 25 25  0  0  0  0  0  0  0  0999 V2000     
   20.8654   19.4363   20.5974 C   0  0  0  0  0  0  0  0  0  0  0  0
   21.6638   20.1229   20.2846 H   0  0  0  0  0  0  0  0  0  0  0  0
   20.5474   18.9148   19.6843 H   0  0  0  0  0  0  0  0  0  0  0  0
   21.4735   18.3972   21.5710 C   0  0  0  0  0  0  0  0  0  0  0  0
   22.1317   17.7349   20.9921 H   0  0  0  0  0  0  0  0  0  0  0  0
   22.1414   18.9028   22.2781 H   0  0  0  0  0  0  0  0  0  0  0  0
   20.4269   17.5290   22.3144 C   0  0  0  0  0  0  0  0  0  0  0  0
   20.6445   16.4701   22.1194 H   0  0  0  0  0  0  0  0  0  0  0  0
   19.4222   17.6876   21.9058 H   0  0  0  0  0  0  0  0  0  0  0  0
   20.4056   17.7411   23.8490 C   0  0  0  0  0  0  0  0  0  0  0  0
   19.5208   17.2322   24.2542 H   0  0  0  0  0  0  0  0  0  0  0  0
   21.2750   17.2268   24.2788 H   0  0  0  0  0  0  0  0  0  0  0  0
   20.4216   19.2069   24.3523 C   0  0  0  0  0  0  0  0  0  0  0  0
   21.4143   19.6423   24.1764 H   0  0  0  0  0  0  0  0  0  0  0  0
   19.3596   20.1353   23.7142 C   0  0  0  0  0  0  0  0  0  0  0  0
   18.4533   19.5677   23.4678 H   0  0  0  0  0  0  0  0  0  0  0  0
   19.0502   20.8614   24.4783 H   0  0  0  0  0  0  0  0  0  0  0  0
   19.8527   20.9571   22.4895 C   0  0  0  0  0  0  0  0  0  0  0  0
   20.8936   21.2816   22.6224 H   0  0  0  0  0  0  0  0  0  0  0  0
   19.2602   21.8821   22.4675 H   0  0  0  0  0  0  0  0  0  0  0  0
   19.6623   20.2686   21.1154 C   0  0  0  0  0  0  0  0  0  0  0  0
   19.4703   21.0517   20.3691 H   0  0  0  0  0  0  0  0  0  0  0  0
   18.7479   19.6617   21.1242 H   0  0  0  0  0  0  0  0  0  0  0  0
   20.1964   19.1715   25.7568 O   0  0  0  0  0  0  0  0  0  0  0  0
   20.9084   18.6203   26.1436 H   0  0  0  0  0  0  0  0  0  0  0  0
  1  2  1  0  0  0  0
  1  3  1  0  0  0  0
  1  4  1  0  0  0  0
  4  5  1  0  0  0  0
  4  6  1  0  0  0  0
  4  7  1  0  0  0  0
  7  8  1  0  0  0  0
  7  9  1  0  0  0  0
  7 10  1  0  0  0  0
 10 11  1  0  0  0  0
 10 12  1  0  0  0  0
 10 13  1  0  0  0  0
 13 14  1  0  0  0  0
 13 15  1  0  0  0  0
 15 16  1  0  0  0  0
 15 17  1  0  0  0  0
 15 18  1  0  0  0  0
 18 19  1  0  0  0  0
 18 20  1  0  0  0  0
  1 21  1  0  0  0  0
 18 21  1  0  0  0  0
 21 22  1  0  0  0  0
 21 23  1  0  0  0  0
 13 24  1  0  0  0  0
 24 25  1  0  0  0  0
M  END
> <VM2 Rank>
58

> <Conf_Id>
1519

> <Probability>
0.19

> <Sum Probability>
96.33

> <Delta G>
1.921

> <G>
63.997

> <E>
31.721

> <-TS>
32.276

> <U+W>
11.153

> <U>
13.313

> <W>
-2.160

> <W(PB)>
-4.301

> <W(SA)>
2.141

> <Valence>
18.589

> <Coulomb>
-8.331

> <VdW>
3.055

> <VdW6>
-12.273

> <VdW12>
15.328

> <Bond>
0.425

> <Angle>
4.505

> <Pdih>
13.659

> <Idih>
0.000

> <Tether>
0.000

$$$$
VeraChem MOL file


 25 25  0  0  0  0  0  0  0  0999 V2000     
   20.8625   19.4211   20.5952 C   0  0  0  0  0  0  0  0  0  0  0  0
   20.2695   19.5632   19.6814 H   0  0  0  0  0  0  0  0  0  0  0  0
   21.9130   19.4884   20.2811 H   0  0  0  0  0  0  0  0  0  0  0  0
   20.5879   17.9883   21.1245 C   0  0  0  0  0  0  0  0  0  0  0  0
   19.5104   17.7805   21.1358 H   0  0  0  0  0  0  0  0  0  0  0  0
   20.9992   17.2894   20.3832 H   0  0  0  0  0  0  0  0  0  0  0  0
   21.2076   17.6412   22.5008 C   0  0  0  0  0  0  0  0  0  0  0  0
   22.1776   18.1402   22.6290 H   0  0  0  0  0  0  0  0  0  0  0  0
   21.4330   16.5660   22.4869 H   0  0  0  0  0  0  0  0  0  0  0  0
   20.2809   17.8914   23.7245 C   0  0  0  0  0  0  0  0  0  0  0  0
   19.2364   17.6592   23.4808 H   0  0  0  0  0  0  0  0  0  0  0  0
   20.5697   17.1625   24.4939 H   0  0  0  0  0  0  0  0  0  0  0  0
   20.3884   19.3028   24.3514 C   0  0  0  0  0  0  0  0  0  0  0  0
   21.4015   19.6866   24.1716 H   0  0  0  0  0  0  0  0  0  0  0  0
   19.3493   20.3333   23.8411 C   0  0  0  0  0  0  0  0  0  0  0  0
   18.3618   20.0794   24.2492 H   0  0  0  0  0  0  0  0  0  0  0  0
   19.6093   21.3128   24.2631 H   0  0  0  0  0  0  0  0  0  0  0  0
   19.2145   20.4876   22.3054 C   0  0  0  0  0  0  0  0  0  0  0  0
   18.6273   21.3939   22.1039 H   0  0  0  0  0  0  0  0  0  0  0  0
   18.6085   19.6672   21.9037 H   0  0  0  0  0  0  0  0  0  0  0  0
   20.5688   20.5961   21.5600 C   0  0  0  0  0  0  0  0  0  0  0  0
   21.4001   20.7091   22.2654 H   0  0  0  0  0  0  0  0  0  0  0  0
   20.5736   21.5252   20.9738 H   0  0  0  0  0  0  0  0  0  0  0  0
   20.2043   19.1811   25.7571 O   0  0  0  0  0  0  0  0  0  0  0  0
   20.3262   20.0763   26.1368 H   0  0  0  0  0  0  0  0  0  0  0  0
  1  2  1  0  0  0  0
  1  3  1  0  0  0  0
  1  4  1  0  0  0  0
  4  5  1  0  0  0  0
  4  6  1  0  0  0  0
  4  7  1  0  0  0  0
  7  8  1  0  0  0  0
  7  9  1  0  0  0  0
  7 10  1  0  0  0  0
 10 11  1  0  0  0  0
 10 12  1  0  0  0  0
 10 13  1  0  0  0  0
 13 14  1  0  0  0  0
 13 15  1  0  0  0  0
 15 16  1  0  0  0  0
 15 17  1  0  0  0  0
 15 18  1  0  0  0  0
 18 19  1  0  0  0  0
 18 20  1  0  0  0  0
  1 21  1  0  0  0  0
 18 21  1  0  0  0  0
 21 22  1  0  0  0  0
 21 23  1  0  0  0  0
 13 24  1  0  0  0  0
 24 25  1  0  0  0  0
M  END
> <VM2 Rank>
59

> <Conf_Id>
252

> <Probability>
0.18

> <Sum Probability>
96.51

> <Delta G>
1.940

> <G>
64.015

> <E>
31.739

> <-TS>
32.276

> <U+W>
11.172

> <U>
13.313

> <W>
-2.141

> <W(PB)>
-4.307

> <W(SA)>
2.165

> <Valence>
18.589

> <Coulomb>
-8.331

> <VdW>
3.055

> <VdW6>
-12.273

> <VdW12>
15.328

> <Bond>
0.425

> <Angle>
4.506

> <Pdih>
13.659

> <Idih>
0.000

> <Tether>
0.000

$$$$
VeraChem MOL file


 25 25  0  0  0  0  0  0  0  0999 V2000     
   19.9856   19.1565   20.8534 C   0  0  0  0  0  0  0  0  0  0  0  0
   18.9824   18.9679   21.2530 H   0  0  0  0  0  0  0  0  0  0  0  0
   19.8378   19.2670   19.7705 H   0  0  0  0  0  0  0  0  0  0  0  0
   20.8807   17.9157   21.0913 C   0  0  0  0  0  0  0  0  0  0  0  0
   20.3013   17.0197   20.8300 H   0  0  0  0  0  0  0  0  0  0  0  0
   21.7185   17.9458   20.3814 H   0  0  0  0  0  0  0  0  0  0  0  0
   21.4650   17.7363   22.5176 C   0  0  0  0  0  0  0  0  0  0  0  0
   22.3065   18.4224   22.6778 H   0  0  0  0  0  0  0  0  0  0  0  0
   21.9100   16.7326   22.5584 H   0  0  0  0  0  0  0  0  0  0  0  0
   20.4517   17.8598   23.6846 C   0  0  0  0  0  0  0  0  0  0  0  0
   19.4665   17.4845   23.3798 H   0  0  0  0  0  0  0  0  0  0  0  0
   20.7926   17.1729   24.4706 H   0  0  0  0  0  0  0  0  0  0  0  0
   20.3362   19.2798   24.3062 C   0  0  0  0  0  0  0  0  0  0  0  0
   21.3045   19.7947   24.2323 H   0  0  0  0  0  0  0  0  0  0  0  0
   19.2409   20.1724   23.6722 C   0  0  0  0  0  0  0  0  0  0  0  0
   18.4097   19.5472   23.3254 H   0  0  0  0  0  0  0  0  0  0  0  0
   18.8061   20.8074   24.4560 H   0  0  0  0  0  0  0  0  0  0  0  0
   19.7171   21.1193   22.5371 C   0  0  0  0  0  0  0  0  0  0  0  0
   20.2947   21.9421   22.9800 H   0  0  0  0  0  0  0  0  0  0  0  0
   18.8302   21.5854   22.0866 H   0  0  0  0  0  0  0  0  0  0  0  0
   20.5673   20.4795   21.4123 C   0  0  0  0  0  0  0  0  0  0  0  0
   21.5971   20.3400   21.7612 H   0  0  0  0  0  0  0  0  0  0  0  0
   20.6462   21.2042   20.5905 H   0  0  0  0  0  0  0  0  0  0  0  0
   20.0198   19.1237   25.6854 O   0  0  0  0  0  0  0  0  0  0  0  0
   20.7606   18.6263   26.0905 H   0  0  0  0  0  0  0  0  0  0  0  0
  1  2  1  0  0  0  0
  1  3  1  0  0  0  0
  1  4  1  0  0  0  0
  4  5  1  0  0  0  0
  4  6  1  0  0  0  0
  4  7  1  0  0  0  0
  7  8  1  0  0  0  0
  7  9  1  0  0  0  0
  7 10  1  0  0  0  0
 10 11  1  0  0  0  0
 10 12  1  0  0  0  0
 10 13  1  0  0  0  0
 13 14  1  0  0  0  0
 13 15  1  0  0  0  0
 15 16  1  0  0  0  0
 15 17  1  0  0  0  0
 15 18  1  0  0  0  0
 18 19  1  0  0  0  0
 18 20  1  0  0  0  0
  1 21  1  0  0  0  0
 18 21  1  0  0  0  0
 21 22  1  0  0  0  0
 21 23  1  0  0  0  0
 13 24  1  0  0  0  0
 24 25  1  0  0  0  0
M  END
> <VM2 Rank>
60

> <Conf_Id>
320

> <Probability>
0.18

> <Sum Probability>
96.69

> <Delta G>
1.947

> <G>
64.022

> <E>
31.664

> <-TS>
32.358

> <U+W>
11.096

> <U>
13.320

> <W>
-2.223

> <W(PB)>
-4.382

> <W(SA)>
2.158

> <Valence>
18.430

> <Coulomb>
-8.418

> <VdW>
3.308

> <VdW6>
-12.374

> <VdW12>
15.682

> <Bond>
0.451

> <Angle>
4.194

> <Pdih>
13.785

> <Idih>
0.000

> <Tether>
0.000

$$$$
VeraChem MOL file


 25 25  0  0  0  0  0  0  0  0999 V2000     
   20.0453   19.0156   20.8519 C   0  0  0  0  0  0  0  0  0  0  0  0
   19.1951   18.4479   21.2471 H   0  0  0  0  0  0  0  0  0  0  0  0
   20.0227   18.8324   19.7690 H   0  0  0  0  0  0  0  0  0  0  0  0
   21.3845   18.4789   21.4176 C   0  0  0  0  0  0  0  0  0  0  0  0
   21.9509   18.0138   20.5993 H   0  0  0  0  0  0  0  0  0  0  0  0
   22.0215   19.3001   21.7665 H   0  0  0  0  0  0  0  0  0  0  0  0
   21.2198   17.4299   22.5445 C   0  0  0  0  0  0  0  0  0  0  0  0
   22.2065   17.2455   22.9908 H   0  0  0  0  0  0  0  0  0  0  0  0
   20.9123   16.4759   22.0949 H   0  0  0  0  0  0  0  0  0  0  0  0
   20.2130   17.7779   23.6742 C   0  0  0  0  0  0  0  0  0  0  0  0
   19.1833   17.6507   23.3196 H   0  0  0  0  0  0  0  0  0  0  0  0
   20.3349   17.0154   24.4550 H   0  0  0  0  0  0  0  0  0  0  0  0
   20.3756   19.1828   24.3059 C   0  0  0  0  0  0  0  0  0  0  0  0
   21.4273   19.4936   24.2308 H   0  0  0  0  0  0  0  0  0  0  0  0
   19.4681   20.2796   23.6828 C   0  0  0  0  0  0  0  0  0  0  0  0
   18.4967   19.8643   23.3863 H   0  0  0  0  0  0  0  0  0  0  0  0
   19.2438   21.0102   24.4719 H   0  0  0  0  0  0  0  0  0  0  0  0
   20.1044   21.0711   22.5110 C   0  0  0  0  0  0  0  0  0  0  0  0
   21.1856   21.1713   22.6711 H   0  0  0  0  0  0  0  0  0  0  0  0
   19.7195   22.0994   22.5479 H   0  0  0  0  0  0  0  0  0  0  0  0
   19.8130   20.5284   21.0867 C   0  0  0  0  0  0  0  0  0  0  0  0
   20.4309   21.0928   20.3750 H   0  0  0  0  0  0  0  0  0  0  0  0
   18.7715   20.7600   20.8252 H   0  0  0  0  0  0  0  0  0  0  0  0
   20.0403   19.0788   25.6854 O   0  0  0  0  0  0  0  0  0  0  0  0
   20.6706   18.4414   26.0814 H   0  0  0  0  0  0  0  0  0  0  0  0
  1  2  1  0  0  0  0
  1  3  1  0  0  0  0
  1  4  1  0  0  0  0
  4  5  1  0  0  0  0
  4  6  1  0  0  0  0
  4  7  1  0  0  0  0
  7  8  1  0  0  0  0
  7  9  1  0  0  0  0
  7 10  1  0  0  0  0
 10 11  1  0  0  0  0
 10 12  1  0  0  0  0
 10 13  1  0  0  0  0
 13 14  1  0  0  0  0
 13 15  1  0  0  0  0
 15 16  1  0  0  0  0
 15 17  1  0  0  0  0
 15 18  1  0  0  0  0
 18 19  1  0  0  0  0
 18 20  1  0  0  0  0
  1 21  1  0  0  0  0
 18 21  1  0  0  0  0
 21 22  1  0  0  0  0
 21 23  1  0  0  0  0
 13 24  1  0  0  0  0
 24 25  1  0  0  0  0
M  END
> <VM2 Rank>
61

> <Conf_Id>
1043

> <Probability>
0.18

> <Sum Probability>
96.86

> <Delta G>
1.950

> <G>
64.025

> <E>
31.663

> <-TS>
32.362

> <U+W>
11.096

> <U>
13.287

> <W>
-2.191

> <W(PB)>
-4.342

> <W(SA)>
2.151

> <Valence>
18.429

> <Coulomb>
-8.446

> <VdW>
3.304

> <VdW6>
-12.366

> <VdW12>
15.671

> <Bond>
0.449

> <Angle>
4.240

> <Pdih>
13.741

> <Idih>
0.000

> <Tether>
0.000

$$$$
VeraChem MOL file


 25 25  0  0  0  0  0  0  0  0999 V2000     
   19.9876   19.1589   20.8515 C   0  0  0  0  0  0  0  0  0  0  0  0
   18.9821   18.9721   21.2458 H   0  0  0  0  0  0  0  0  0  0  0  0
   19.8450   19.2710   19.7681 H   0  0  0  0  0  0  0  0  0  0  0  0
   20.8782   17.9152   21.0914 C   0  0  0  0  0  0  0  0  0  0  0  0
   20.2954   17.0209   20.8316 H   0  0  0  0  0  0  0  0  0  0  0  0
   21.7157   17.9412   20.3809 H   0  0  0  0  0  0  0  0  0  0  0  0
   21.4636   17.7348   22.5172 C   0  0  0  0  0  0  0  0  0  0  0  0
   22.3068   18.4191   22.6766 H   0  0  0  0  0  0  0  0  0  0  0  0
   21.9068   16.7303   22.5577 H   0  0  0  0  0  0  0  0  0  0  0  0
   20.4536   17.8598   23.6870 C   0  0  0  0  0  0  0  0  0  0  0  0
   19.4690   17.4772   23.3902 H   0  0  0  0  0  0  0  0  0  0  0  0
   20.8024   17.1828   24.4787 H   0  0  0  0  0  0  0  0  0  0  0  0
   20.3354   19.2804   24.3058 C   0  0  0  0  0  0  0  0  0  0  0  0
   21.3050   19.7928   24.2307 H   0  0  0  0  0  0  0  0  0  0  0  0
   19.2383   20.1699   23.6697 C   0  0  0  0  0  0  0  0  0  0  0  0
   18.4133   19.5403   23.3157 H   0  0  0  0  0  0  0  0  0  0  0  0
   18.7915   20.8029   24.4479 H   0  0  0  0  0  0  0  0  0  0  0  0
   19.7171   21.1190   22.5379 C   0  0  0  0  0  0  0  0  0  0  0  0
   20.2934   21.9417   22.9827 H   0  0  0  0  0  0  0  0  0  0  0  0
   18.8311   21.5852   22.0855 H   0  0  0  0  0  0  0  0  0  0  0  0
   20.5696   20.4803   21.4142 C   0  0  0  0  0  0  0  0  0  0  0  0
   21.5986   20.3391   21.7651 H   0  0  0  0  0  0  0  0  0  0  0  0
   20.6511   21.2064   20.5938 H   0  0  0  0  0  0  0  0  0  0  0  0
   20.0207   19.1246   25.6853 O   0  0  0  0  0  0  0  0  0  0  0  0
   20.0255   20.0222   26.0786 H   0  0  0  0  0  0  0  0  0  0  0  0
  1  2  1  0  0  0  0
  1  3  1  0  0  0  0
  1  4  1  0  0  0  0
  4  5  1  0  0  0  0
  4  6  1  0  0  0  0
  4  7  1  0  0  0  0
  7  8  1  0  0  0  0
  7  9  1  0  0  0  0
  7 10  1  0  0  0  0
 10 11  1  0  0  0  0
 10 12  1  0  0  0  0
 10 13  1  0  0  0  0
 13 14  1  0  0  0  0
 13 15  1  0  0  0  0
 15 16  1  0  0  0  0
 15 17  1  0  0  0  0
 15 18  1  0  0  0  0
 18 19  1  0  0  0  0
 18 20  1  0  0  0  0
  1 21  1  0  0  0  0
 18 21  1  0  0  0  0
 21 22  1  0  0  0  0
 21 23  1  0  0  0  0
 13 24  1  0  0  0  0
 24 25  1  0  0  0  0
M  END
> <VM2 Rank>
62

> <Conf_Id>
1501

> <Probability>
0.17

> <Sum Probability>
97.04

> <Delta G>
1.963

> <G>
64.039

> <E>
31.677

> <-TS>
32.362

> <U+W>
11.109

> <U>
13.287

> <W>
-2.178

> <W(PB)>
-4.334

> <W(SA)>
2.156

> <Valence>
18.429

> <Coulomb>
-8.446

> <VdW>
3.304

> <VdW6>
-12.366

> <VdW12>
15.671

> <Bond>
0.449

> <Angle>
4.240

> <Pdih>
13.740

> <Idih>
0.000

> <Tether>
0.000

$$$$
VeraChem MOL file


 25 25  0  0  0  0  0  0  0  0999 V2000     
   20.8664   19.4222   20.5982 C   0  0  0  0  0  0  0  0  0  0  0  0
   21.9184   19.4894   20.2890 H   0  0  0  0  0  0  0  0  0  0  0  0
   20.2780   19.5640   19.6813 H   0  0  0  0  0  0  0  0  0  0  0  0
   20.5889   17.9893   21.1255 C   0  0  0  0  0  0  0  0  0  0  0  0
   19.5111   17.7830   21.1345 H   0  0  0  0  0  0  0  0  0  0  0  0
   21.0004   17.2908   20.3839 H   0  0  0  0  0  0  0  0  0  0  0  0
   21.2060   17.6387   22.5022 C   0  0  0  0  0  0  0  0  0  0  0  0
   22.1769   18.1356   22.6320 H   0  0  0  0  0  0  0  0  0  0  0  0
   21.4291   16.5630   22.4867 H   0  0  0  0  0  0  0  0  0  0  0  0
   20.2773   17.8893   23.7239 C   0  0  0  0  0  0  0  0  0  0  0  0
   19.2327   17.6635   23.4742 H   0  0  0  0  0  0  0  0  0  0  0  0
   20.5578   17.1540   24.4898 H   0  0  0  0  0  0  0  0  0  0  0  0
   20.3879   19.3014   24.3491 C   0  0  0  0  0  0  0  0  0  0  0  0
   21.3987   19.6889   24.1642 H   0  0  0  0  0  0  0  0  0  0  0  0
   19.3466   20.3296   23.8403 C   0  0  0  0  0  0  0  0  0  0  0  0
   18.3605   20.0728   24.2494 H   0  0  0  0  0  0  0  0  0  0  0  0
   19.6059   21.3061   24.2696 H   0  0  0  0  0  0  0  0  0  0  0  0
   19.2129   20.4890   22.3047 C   0  0  0  0  0  0  0  0  0  0  0  0
   18.6271   21.3969   22.1064 H   0  0  0  0  0  0  0  0  0  0  0  0
   18.6063   19.6708   21.8996 H   0  0  0  0  0  0  0  0  0  0  0  0
   20.5677   20.5985   21.5601 C   0  0  0  0  0  0  0  0  0  0  0  0
   21.3978   20.7166   22.2662 H   0  0  0  0  0  0  0  0  0  0  0  0
   20.5704   21.5260   20.9714 H   0  0  0  0  0  0  0  0  0  0  0  0
   20.2103   19.1850   25.7560 O   0  0  0  0  0  0  0  0  0  0  0  0
   20.9222   18.5960   26.0826 H   0  0  0  0  0  0  0  0  0  0  0  0
  1  2  1  0  0  0  0
  1  3  1  0  0  0  0
  1  4  1  0  0  0  0
  4  5  1  0  0  0  0
  4  6  1  0  0  0  0
  4  7  1  0  0  0  0
  7  8  1  0  0  0  0
  7  9  1  0  0  0  0
  7 10  1  0  0  0  0
 10 11  1  0  0  0  0
 10 12  1  0  0  0  0
 10 13  1  0  0  0  0
 13 14  1  0  0  0  0
 13 15  1  0  0  0  0
 15 16  1  0  0  0  0
 15 17  1  0  0  0  0
 15 18  1  0  0  0  0
 18 19  1  0  0  0  0
 18 20  1  0  0  0  0
  1 21  1  0  0  0  0
 18 21  1  0  0  0  0
 21 22  1  0  0  0  0
 21 23  1  0  0  0  0
 13 24  1  0  0  0  0
 24 25  1  0  0  0  0
M  END
> <VM2 Rank>
63

> <Conf_Id>
426

> <Probability>
0.17

> <Sum Probability>
97.21

> <Delta G>
1.966

> <G>
64.042

> <E>
31.758

> <-TS>
32.284

> <U+W>
11.190

> <U>
13.296

> <W>
-2.106

> <W(PB)>
-4.269

> <W(SA)>
2.162

> <Valence>
18.607

> <Coulomb>
-8.339

> <VdW>
3.028

> <VdW6>
-12.271

> <VdW12>
15.299

> <Bond>
0.424

> <Angle>
4.487

> <Pdih>
13.696

> <Idih>
0.000

> <Tether>
0.000

$$$$
VeraChem MOL file


 25 25  0  0  0  0  0  0  0  0999 V2000     
   20.0423   19.0161   20.8537 C   0  0  0  0  0  0  0  0  0  0  0  0
   19.1924   18.4513   21.2542 H   0  0  0  0  0  0  0  0  0  0  0  0
   20.0150   18.8304   19.7714 H   0  0  0  0  0  0  0  0  0  0  0  0
   21.3823   18.4778   21.4157 C   0  0  0  0  0  0  0  0  0  0  0  0
   21.9460   18.0119   20.5960 H   0  0  0  0  0  0  0  0  0  0  0  0
   22.0212   19.2983   21.7627 H   0  0  0  0  0  0  0  0  0  0  0  0
   21.2199   17.4297   22.5437 C   0  0  0  0  0  0  0  0  0  0  0  0
   22.2076   17.2460   22.9882 H   0  0  0  0  0  0  0  0  0  0  0  0
   20.9116   16.4751   22.0959 H   0  0  0  0  0  0  0  0  0  0  0  0
   20.2164   17.7778   23.6766 C   0  0  0  0  0  0  0  0  0  0  0  0
   19.1854   17.6433   23.3291 H   0  0  0  0  0  0  0  0  0  0  0  0
   20.3482   17.0222   24.4630 H   0  0  0  0  0  0  0  0  0  0  0  0
   20.3757   19.1837   24.3064 C   0  0  0  0  0  0  0  0  0  0  0  0
   21.4283   19.4917   24.2325 H   0  0  0  0  0  0  0  0  0  0  0  0
   19.4667   20.2783   23.6803 C   0  0  0  0  0  0  0  0  0  0  0  0
   18.5000   19.8575   23.3759 H   0  0  0  0  0  0  0  0  0  0  0  0
   19.2299   21.0104   24.4639 H   0  0  0  0  0  0  0  0  0  0  0  0
   20.1065   21.0710   22.5115 C   0  0  0  0  0  0  0  0  0  0  0  0
   21.1878   21.1687   22.6725 H   0  0  0  0  0  0  0  0  0  0  0  0
   19.7236   22.1001   22.5486 H   0  0  0  0  0  0  0  0  0  0  0  0
   19.8154   20.5299   21.0866 C   0  0  0  0  0  0  0  0  0  0  0  0
   20.4365   21.0916   20.3755 H   0  0  0  0  0  0  0  0  0  0  0  0
   18.7750   20.7652   20.8235 H   0  0  0  0  0  0  0  0  0  0  0  0
   20.0388   19.0787   25.6855 O   0  0  0  0  0  0  0  0  0  0  0  0
   20.2208   19.9534   26.0881 H   0  0  0  0  0  0  0  0  0  0  0  0
  1  2  1  0  0  0  0
  1  3  1  0  0  0  0
  1  4  1  0  0  0  0
  4  5  1  0  0  0  0
  4  6  1  0  0  0  0
  4  7  1  0  0  0  0
  7  8  1  0  0  0  0
  7  9  1  0  0  0  0
  7 10  1  0  0  0  0
 10 11  1  0  0  0  0
 10 12  1  0  0  0  0
 10 13  1  0  0  0  0
 13 14  1  0  0  0  0
 13 15  1  0  0  0  0
 15 16  1  0  0  0  0
 15 17  1  0  0  0  0
 15 18  1  0  0  0  0
 18 19  1  0  0  0  0
 18 20  1  0  0  0  0
  1 21  1  0  0  0  0
 18 21  1  0  0  0  0
 21 22  1  0  0  0  0
 21 23  1  0  0  0  0
 13 24  1  0  0  0  0
 24 25  1  0  0  0  0
M  END
> <VM2 Rank>
64

> <Conf_Id>
911

> <Probability>
0.17

> <Sum Probability>
97.39

> <Delta G>
1.970

> <G>
64.045

> <E>
31.687

> <-TS>
32.358

> <U+W>
11.120

> <U>
13.320

> <W>
-2.200

> <W(PB)>
-4.347

> <W(SA)>
2.147

> <Valence>
18.430

> <Coulomb>
-8.418

> <VdW>
3.308

> <VdW6>
-12.374

> <VdW12>
15.682

> <Bond>
0.451

> <Angle>
4.194

> <Pdih>
13.785

> <Idih>
0.000

> <Tether>
0.000

$$$$
VeraChem MOL file


 25 25  0  0  0  0  0  0  0  0999 V2000     
   20.0410   19.0148   20.8531 C   0  0  0  0  0  0  0  0  0  0  0  0
   20.0139   18.8305   19.7705 H   0  0  0  0  0  0  0  0  0  0  0  0
   19.1918   18.4484   21.2525 H   0  0  0  0  0  0  0  0  0  0  0  0
   21.3819   18.4776   21.4140 C   0  0  0  0  0  0  0  0  0  0  0  0
   21.9441   18.0101   20.5942 H   0  0  0  0  0  0  0  0  0  0  0  0
   22.0216   19.2987   21.7581 H   0  0  0  0  0  0  0  0  0  0  0  0
   21.2221   17.4316   22.5442 C   0  0  0  0  0  0  0  0  0  0  0  0
   22.2102   17.2519   22.9896 H   0  0  0  0  0  0  0  0  0  0  0  0
   20.9173   16.4752   22.0979 H   0  0  0  0  0  0  0  0  0  0  0  0
   20.2168   17.7780   23.6758 C   0  0  0  0  0  0  0  0  0  0  0  0
   19.1871   17.6430   23.3240 H   0  0  0  0  0  0  0  0  0  0  0  0
   20.3500   17.0198   24.4595 H   0  0  0  0  0  0  0  0  0  0  0  0
   20.3754   19.1834   24.3072 C   0  0  0  0  0  0  0  0  0  0  0  0
   21.4280   19.4923   24.2399 H   0  0  0  0  0  0  0  0  0  0  0  0
   19.4704   20.2817   23.6830 C   0  0  0  0  0  0  0  0  0  0  0  0
   18.4984   19.8695   23.3833 H   0  0  0  0  0  0  0  0  0  0  0  0
   19.2483   21.0162   24.4693 H   0  0  0  0  0  0  0  0  0  0  0  0
   20.1092   21.0700   22.5108 C   0  0  0  0  0  0  0  0  0  0  0  0
   21.1910   21.1649   22.6696 H   0  0  0  0  0  0  0  0  0  0  0  0
   19.7294   22.1003   22.5477 H   0  0  0  0  0  0  0  0  0  0  0  0
   19.8124   20.5281   21.0874 C   0  0  0  0  0  0  0  0  0  0  0  0
   20.4299   21.0907   20.3739 H   0  0  0  0  0  0  0  0  0  0  0  0
   18.7708   20.7621   20.8285 H   0  0  0  0  0  0  0  0  0  0  0  0
   20.0349   19.0777   25.6844 O   0  0  0  0  0  0  0  0  0  0  0  0
   19.0951   18.8038   25.7162 H   0  0  0  0  0  0  0  0  0  0  0  0
  1  2  1  0  0  0  0
  1  3  1  0  0  0  0
  1  4  1  0  0  0  0
  4  5  1  0  0  0  0
  4  6  1  0  0  0  0
  4  7  1  0  0  0  0
  7  8  1  0  0  0  0
  7  9  1  0  0  0  0
  7 10  1  0  0  0  0
 10 11  1  0  0  0  0
 10 12  1  0  0  0  0
 10 13  1  0  0  0  0
 13 14  1  0  0  0  0
 13 15  1  0  0  0  0
 15 16  1  0  0  0  0
 15 17  1  0  0  0  0
 15 18  1  0  0  0  0
 18 19  1  0  0  0  0
 18 20  1  0  0  0  0
  1 21  1  0  0  0  0
 18 21  1  0  0  0  0
 21 22  1  0  0  0  0
 21 23  1  0  0  0  0
 13 24  1  0  0  0  0
 24 25  1  0  0  0  0
M  END
> <VM2 Rank>
65

> <Conf_Id>
1012

> <Probability>
0.17

> <Sum Probability>
97.55

> <Delta G>
1.983

> <G>
64.059

> <E>
31.724

> <-TS>
32.335

> <U+W>
11.156

> <U>
13.141

> <W>
-1.984

> <W(PB)>
-4.127

> <W(SA)>
2.143

> <Valence>
18.807

> <Coulomb>
-8.930

> <VdW>
3.263

> <VdW6>
-12.382

> <VdW12>
15.645

> <Bond>
0.441

> <Angle>
4.299

> <Pdih>
14.067

> <Idih>
0.000

> <Tether>
0.000

$$$$
VeraChem MOL file


 25 25  0  0  0  0  0  0  0  0999 V2000     
   21.0761   19.4510   20.9999 C   0  0  0  0  0  0  0  0  0  0  0  0
   21.4803   19.4483   19.9784 H   0  0  0  0  0  0  0  0  0  0  0  0
   21.9490   19.6103   21.6434 H   0  0  0  0  0  0  0  0  0  0  0  0
   20.4230   18.0736   21.2781 C   0  0  0  0  0  0  0  0  0  0  0  0
   19.3352   18.1668   21.3774 H   0  0  0  0  0  0  0  0  0  0  0  0
   20.5693   17.4309   20.3993 H   0  0  0  0  0  0  0  0  0  0  0  0
   20.9986   17.3374   22.5125 C   0  0  0  0  0  0  0  0  0  0  0  0
   21.9814   16.9236   22.2487 H   0  0  0  0  0  0  0  0  0  0  0  0
   20.3576   16.4713   22.7269 H   0  0  0  0  0  0  0  0  0  0  0  0
   21.1604   18.1756   23.8096 C   0  0  0  0  0  0  0  0  0  0  0  0
   22.0286   18.8403   23.7268 H   0  0  0  0  0  0  0  0  0  0  0  0
   21.4191   17.4703   24.6111 H   0  0  0  0  0  0  0  0  0  0  0  0
   19.9158   18.9897   24.2420 C   0  0  0  0  0  0  0  0  0  0  0  0
   19.0092   18.4730   23.8969 H   0  0  0  0  0  0  0  0  0  0  0  0
   19.8971   20.4615   23.7435 C   0  0  0  0  0  0  0  0  0  0  0  0
   19.3429   21.0560   24.4827 H   0  0  0  0  0  0  0  0  0  0  0  0
   20.9092   20.8852   23.7251 H   0  0  0  0  0  0  0  0  0  0  0  0
   19.1919   20.6835   22.3808 C   0  0  0  0  0  0  0  0  0  0  0  0
   18.7127   21.6719   22.4036 H   0  0  0  0  0  0  0  0  0  0  0  0
   18.3627   19.9733   22.2686 H   0  0  0  0  0  0  0  0  0  0  0  0
   20.1090   20.6531   21.1294 C   0  0  0  0  0  0  0  0  0  0  0  0
   20.7035   21.5765   21.1024 H   0  0  0  0  0  0  0  0  0  0  0  0
   19.4683   20.6855   20.2376 H   0  0  0  0  0  0  0  0  0  0  0  0
   19.8921   19.0176   25.6641 O   0  0  0  0  0  0  0  0  0  0  0  0
   20.7069   19.4830   25.9447 H   0  0  0  0  0  0  0  0  0  0  0  0
  1  2  1  0  0  0  0
  1  3  1  0  0  0  0
  1  4  1  0  0  0  0
  4  5  1  0  0  0  0
  4  6  1  0  0  0  0
  4  7  1  0  0  0  0
  7  8  1  0  0  0  0
  7  9  1  0  0  0  0
  7 10  1  0  0  0  0
 10 11  1  0  0  0  0
 10 12  1  0  0  0  0
 10 13  1  0  0  0  0
 13 14  1  0  0  0  0
 13 15  1  0  0  0  0
 15 16  1  0  0  0  0
 15 17  1  0  0  0  0
 15 18  1  0  0  0  0
 18 19  1  0  0  0  0
 18 20  1  0  0  0  0
  1 21  1  0  0  0  0
 18 21  1  0  0  0  0
 21 22  1  0  0  0  0
 21 23  1  0  0  0  0
 13 24  1  0  0  0  0
 24 25  1  0  0  0  0
M  END
> <VM2 Rank>
66

> <Conf_Id>
1682

> <Probability>
0.16

> <Sum Probability>
97.72

> <Delta G>
1.999

> <G>
64.074

> <E>
31.739

> <-TS>
32.335

> <U+W>
11.172

> <U>
13.140

> <W>
-1.969

> <W(PB)>
-4.104

> <W(SA)>
2.136

> <Valence>
18.806

> <Coulomb>
-8.930

> <VdW>
3.264

> <VdW6>
-12.382

> <VdW12>
15.646

> <Bond>
0.441

> <Angle>
4.299

> <Pdih>
14.067

> <Idih>
0.000

> <Tether>
0.000

$$$$
VeraChem MOL file


 25 25  0  0  0  0  0  0  0  0999 V2000     
   20.8661   19.4366   20.5985 C   0  0  0  0  0  0  0  0  0  0  0  0
   21.6639   20.1242   20.2865 H   0  0  0  0  0  0  0  0  0  0  0  0
   20.5490   18.9154   19.6849 H   0  0  0  0  0  0  0  0  0  0  0  0
   21.4747   18.3973   21.5716 C   0  0  0  0  0  0  0  0  0  0  0  0
   22.1337   17.7361   20.9923 H   0  0  0  0  0  0  0  0  0  0  0  0
   22.1420   18.9024   22.2795 H   0  0  0  0  0  0  0  0  0  0  0  0
   20.4286   17.5275   22.3136 C   0  0  0  0  0  0  0  0  0  0  0  0
   20.6498   16.4689   22.1205 H   0  0  0  0  0  0  0  0  0  0  0  0
   19.4246   17.6827   21.9018 H   0  0  0  0  0  0  0  0  0  0  0  0
   20.4028   17.7407   23.8480 C   0  0  0  0  0  0  0  0  0  0  0  0
   19.5198   17.2272   24.2504 H   0  0  0  0  0  0  0  0  0  0  0  0
   21.2727   17.2306   24.2824 H   0  0  0  0  0  0  0  0  0  0  0  0
   20.4190   19.2065   24.3511 C   0  0  0  0  0  0  0  0  0  0  0  0
   21.4128   19.6392   24.1759 H   0  0  0  0  0  0  0  0  0  0  0  0
   19.3581   20.1378   23.7153 C   0  0  0  0  0  0  0  0  0  0  0  0
   18.4497   19.5741   23.4671 H   0  0  0  0  0  0  0  0  0  0  0  0
   19.0526   20.8678   24.4774 H   0  0  0  0  0  0  0  0  0  0  0  0
   19.8528   20.9572   22.4899 C   0  0  0  0  0  0  0  0  0  0  0  0
   20.8942   21.2802   22.6228 H   0  0  0  0  0  0  0  0  0  0  0  0
   19.2618   21.8832   22.4662 H   0  0  0  0  0  0  0  0  0  0  0  0
   19.6619   20.2671   21.1166 C   0  0  0  0  0  0  0  0  0  0  0  0
   19.4684   21.0494   20.3698 H   0  0  0  0  0  0  0  0  0  0  0  0
   18.7485   19.6590   21.1263 H   0  0  0  0  0  0  0  0  0  0  0  0
   20.1999   19.1723   25.7555 O   0  0  0  0  0  0  0  0  0  0  0  0
   19.3024   18.8034   25.8870 H   0  0  0  0  0  0  0  0  0  0  0  0
  1  2  1  0  0  0  0
  1  3  1  0  0  0  0
  1  4  1  0  0  0  0
  4  5  1  0  0  0  0
  4  6  1  0  0  0  0
  4  7  1  0  0  0  0
  7  8  1  0  0  0  0
  7  9  1  0  0  0  0
  7 10  1  0  0  0  0
 10 11  1  0  0  0  0
 10 12  1  0  0  0  0
 10 13  1  0  0  0  0
 13 14  1  0  0  0  0
 13 15  1  0  0  0  0
 15 16  1  0  0  0  0
 15 17  1  0  0  0  0
 15 18  1  0  0  0  0
 18 19  1  0  0  0  0
 18 20  1  0  0  0  0
  1 21  1  0  0  0  0
 18 21  1  0  0  0  0
 21 22  1  0  0  0  0
 21 23  1  0  0  0  0
 13 24  1  0  0  0  0
 24 25  1  0  0  0  0
M  END
> <VM2 Rank>
67

> <Conf_Id>
1247

> <Probability>
0.16

> <Sum Probability>
97.88

> <Delta G>
2.011

> <G>
64.086

> <E>
31.829

> <-TS>
32.257

> <U+W>
11.261

> <U>
13.202

> <W>
-1.941

> <W(PB)>
-4.073

> <W(SA)>
2.132

> <Valence>
18.957

> <Coulomb>
-8.753

> <VdW>
2.998

> <VdW6>
-12.294

> <VdW12>
15.292

> <Bond>
0.419

> <Angle>
4.543

> <Pdih>
13.996

> <Idih>
0.000

> <Tether>
0.000

$$$$
VeraChem MOL file


 25 25  0  0  0  0  0  0  0  0999 V2000     
   20.9411   19.3923   20.7640 C   0  0  0  0  0  0  0  0  0  0  0  0
   21.8662   19.8533   21.1326 H   0  0  0  0  0  0  0  0  0  0  0  0
   21.0308   19.4218   19.6695 H   0  0  0  0  0  0  0  0  0  0  0  0
   20.8747   17.8968   21.1730 C   0  0  0  0  0  0  0  0  0  0  0  0
   20.1499   17.3838   20.5263 H   0  0  0  0  0  0  0  0  0  0  0  0
   21.8485   17.4389   20.9521 H   0  0  0  0  0  0  0  0  0  0  0  0
   20.5072   17.5952   22.6460 C   0  0  0  0  0  0  0  0  0  0  0  0
   20.7092   16.5332   22.8403 H   0  0  0  0  0  0  0  0  0  0  0  0
   19.4248   17.7029   22.7834 H   0  0  0  0  0  0  0  0  0  0  0  0
   21.2849   18.4487   23.6824 C   0  0  0  0  0  0  0  0  0  0  0  0
   21.8280   17.7749   24.3577 H   0  0  0  0  0  0  0  0  0  0  0  0
   22.0700   19.0361   23.1944 H   0  0  0  0  0  0  0  0  0  0  0  0
   20.4050   19.3950   24.5335 C   0  0  0  0  0  0  0  0  0  0  0  0
   21.0798   20.0958   25.0459 H   0  0  0  0  0  0  0  0  0  0  0  0
   19.3507   20.2294   23.7631 C   0  0  0  0  0  0  0  0  0  0  0  0
   18.4920   19.6052   23.4866 H   0  0  0  0  0  0  0  0  0  0  0  0
   18.9498   20.9615   24.4762 H   0  0  0  0  0  0  0  0  0  0  0  0
   19.8608   21.0072   22.5221 C   0  0  0  0  0  0  0  0  0  0  0  0
   20.8896   21.3591   22.6773 H   0  0  0  0  0  0  0  0  0  0  0  0
   19.2510   21.9179   22.4453 H   0  0  0  0  0  0  0  0  0  0  0  0
   19.7218   20.2585   21.1673 C   0  0  0  0  0  0  0  0  0  0  0  0
   19.6057   21.0264   20.3900 H   0  0  0  0  0  0  0  0  0  0  0  0
   18.7961   19.6685   21.1331 H   0  0  0  0  0  0  0  0  0  0  0  0
   19.7178   18.6199   25.5086 O   0  0  0  0  0  0  0  0  0  0  0  0
   20.3970   18.0980   25.9835 H   0  0  0  0  0  0  0  0  0  0  0  0
  1  2  1  0  0  0  0
  1  3  1  0  0  0  0
  1  4  1  0  0  0  0
  4  5  1  0  0  0  0
  4  6  1  0  0  0  0
  4  7  1  0  0  0  0
  7  8  1  0  0  0  0
  7  9  1  0  0  0  0
  7 10  1  0  0  0  0
 10 11  1  0  0  0  0
 10 12  1  0  0  0  0
 10 13  1  0  0  0  0
 13 14  1  0  0  0  0
 13 15  1  0  0  0  0
 15 16  1  0  0  0  0
 15 17  1  0  0  0  0
 15 18  1  0  0  0  0
 18 19  1  0  0  0  0
 18 20  1  0  0  0  0
  1 21  1  0  0  0  0
 18 21  1  0  0  0  0
 21 22  1  0  0  0  0
 21 23  1  0  0  0  0
 13 24  1  0  0  0  0
 24 25  1  0  0  0  0
M  END
> <VM2 Rank>
68

> <Conf_Id>
1923

> <Probability>
0.16

> <Sum Probability>
98.03

> <Delta G>
2.030

> <G>
64.106

> <E>
31.817

> <-TS>
32.288

> <U+W>
11.250

> <U>
13.420

> <W>
-2.170

> <W(PB)>
-4.300

> <W(SA)>
2.131

> <Valence>
18.609

> <Coulomb>
-8.052

> <VdW>
2.863

> <VdW6>
-12.524

> <VdW12>
15.388

> <Bond>
0.430

> <Angle>
4.723

> <Pdih>
13.455

> <Idih>
0.000

> <Tether>
0.000

$$$$
VeraChem MOL file


 25 25  0  0  0  0  0  0  0  0999 V2000     
   20.9187   19.5396   20.7756 C   0  0  0  0  0  0  0  0  0  0  0  0
   21.8926   19.8661   21.1619 H   0  0  0  0  0  0  0  0  0  0  0  0
   21.0208   19.5880   19.6828 H   0  0  0  0  0  0  0  0  0  0  0  0
   20.6630   18.0627   21.1669 C   0  0  0  0  0  0  0  0  0  0  0  0
   21.1367   17.4420   20.3940 H   0  0  0  0  0  0  0  0  0  0  0  0
   19.5920   17.8253   21.1141 H   0  0  0  0  0  0  0  0  0  0  0  0
   21.2688   17.6247   22.5295 C   0  0  0  0  0  0  0  0  0  0  0  0
   22.2422   18.1027   22.7032 H   0  0  0  0  0  0  0  0  0  0  0  0
   21.4832   16.5500   22.4505 H   0  0  0  0  0  0  0  0  0  0  0  0
   20.3379   17.8071   23.7565 C   0  0  0  0  0  0  0  0  0  0  0  0
   19.2941   17.6424   23.4621 H   0  0  0  0  0  0  0  0  0  0  0  0
   20.5608   17.0022   24.4690 H   0  0  0  0  0  0  0  0  0  0  0  0
   20.4804   19.1385   24.5364 C   0  0  0  0  0  0  0  0  0  0  0  0
   21.4446   19.1177   25.0645 H   0  0  0  0  0  0  0  0  0  0  0  0
   20.4468   20.4343   23.6915 C   0  0  0  0  0  0  0  0  0  0  0  0
   20.3431   21.2912   24.3698 H   0  0  0  0  0  0  0  0  0  0  0  0
   21.4251   20.5769   23.2201 H   0  0  0  0  0  0  0  0  0  0  0  0
   19.3104   20.4932   22.6367 C   0  0  0  0  0  0  0  0  0  0  0  0
   18.6988   21.3857   22.8259 H   0  0  0  0  0  0  0  0  0  0  0  0
   18.6193   19.6507   22.7585 H   0  0  0  0  0  0  0  0  0  0  0  0
   19.8074   20.5476   21.1719 C   0  0  0  0  0  0  0  0  0  0  0  0
   20.1754   21.5613   20.9623 H   0  0  0  0  0  0  0  0  0  0  0  0
   18.9429   20.4011   20.5103 H   0  0  0  0  0  0  0  0  0  0  0  0
   19.4305   19.1952   25.4949 O   0  0  0  0  0  0  0  0  0  0  0  0
   19.5338   20.0420   25.9760 H   0  0  0  0  0  0  0  0  0  0  0  0
  1  2  1  0  0  0  0
  1  3  1  0  0  0  0
  1  4  1  0  0  0  0
  4  5  1  0  0  0  0
  4  6  1  0  0  0  0
  4  7  1  0  0  0  0
  7  8  1  0  0  0  0
  7  9  1  0  0  0  0
  7 10  1  0  0  0  0
 10 11  1  0  0  0  0
 10 12  1  0  0  0  0
 10 13  1  0  0  0  0
 13 14  1  0  0  0  0
 13 15  1  0  0  0  0
 15 16  1  0  0  0  0
 15 17  1  0  0  0  0
 15 18  1  0  0  0  0
 18 19  1  0  0  0  0
 18 20  1  0  0  0  0
  1 21  1  0  0  0  0
 18 21  1  0  0  0  0
 21 22  1  0  0  0  0
 21 23  1  0  0  0  0
 13 24  1  0  0  0  0
 24 25  1  0  0  0  0
M  END
> <VM2 Rank>
69

> <Conf_Id>
1175

> <Probability>
0.16

> <Sum Probability>
98.19

> <Delta G>
2.031

> <G>
64.107

> <E>
31.820

> <-TS>
32.287

> <U+W>
11.252

> <U>
13.420

> <W>
-2.167

> <W(PB)>
-4.325

> <W(SA)>
2.157

> <Valence>
18.608

> <Coulomb>
-8.052

> <VdW>
2.863

> <VdW6>
-12.525

> <VdW12>
15.388

> <Bond>
0.430

> <Angle>
4.723

> <Pdih>
13.455

> <Idih>
0.000

> <Tether>
0.000

$$$$
VeraChem MOL file


 25 25  0  0  0  0  0  0  0  0999 V2000     
   20.8631   19.4213   20.5962 C   0  0  0  0  0  0  0  0  0  0  0  0
   21.9139   19.4875   20.2828 H   0  0  0  0  0  0  0  0  0  0  0  0
   20.2709   19.5638   19.6820 H   0  0  0  0  0  0  0  0  0  0  0  0
   20.5866   17.9891   21.1257 C   0  0  0  0  0  0  0  0  0  0  0  0
   19.5088   17.7829   21.1380 H   0  0  0  0  0  0  0  0  0  0  0  0
   20.9961   17.2896   20.3840 H   0  0  0  0  0  0  0  0  0  0  0  0
   21.2077   17.6413   22.5012 C   0  0  0  0  0  0  0  0  0  0  0  0
   22.1770   18.1417   22.6293 H   0  0  0  0  0  0  0  0  0  0  0  0
   21.4350   16.5664   22.4857 H   0  0  0  0  0  0  0  0  0  0  0  0
   20.2816   17.8885   23.7256 C   0  0  0  0  0  0  0  0  0  0  0  0
   19.2383   17.6522   23.4802 H   0  0  0  0  0  0  0  0  0  0  0  0
   20.5759   17.1597   24.4931 H   0  0  0  0  0  0  0  0  0  0  0  0
   20.3862   19.3013   24.3503 C   0  0  0  0  0  0  0  0  0  0  0  0
   21.3983   19.6878   24.1713 H   0  0  0  0  0  0  0  0  0  0  0  0
   19.3470   20.3316   23.8401 C   0  0  0  0  0  0  0  0  0  0  0  0
   18.3576   20.0823   24.2452 H   0  0  0  0  0  0  0  0  0  0  0  0
   19.6104   21.3085   24.2668 H   0  0  0  0  0  0  0  0  0  0  0  0
   19.2147   20.4900   22.3045 C   0  0  0  0  0  0  0  0  0  0  0  0
   18.6305   21.3986   22.1049 H   0  0  0  0  0  0  0  0  0  0  0  0
   18.6069   19.6725   21.8996 H   0  0  0  0  0  0  0  0  0  0  0  0
   20.5698   20.5968   21.5605 C   0  0  0  0  0  0  0  0  0  0  0  0
   20.5761   21.5257   20.9740 H   0  0  0  0  0  0  0  0  0  0  0  0
   21.4005   20.7095   22.2669 H   0  0  0  0  0  0  0  0  0  0  0  0
   20.2072   19.1831   25.7559 O   0  0  0  0  0  0  0  0  0  0  0  0
   19.3084   18.8185   25.8910 H   0  0  0  0  0  0  0  0  0  0  0  0
  1  2  1  0  0  0  0
  1  3  1  0  0  0  0
  1  4  1  0  0  0  0
  4  5  1  0  0  0  0
  4  6  1  0  0  0  0
  4  7  1  0  0  0  0
  7  8  1  0  0  0  0
  7  9  1  0  0  0  0
  7 10  1  0  0  0  0
 10 11  1  0  0  0  0
 10 12  1  0  0  0  0
 10 13  1  0  0  0  0
 13 14  1  0  0  0  0
 13 15  1  0  0  0  0
 15 16  1  0  0  0  0
 15 17  1  0  0  0  0
 15 18  1  0  0  0  0
 18 19  1  0  0  0  0
 18 20  1  0  0  0  0
  1 21  1  0  0  0  0
 18 21  1  0  0  0  0
 21 22  1  0  0  0  0
 21 23  1  0  0  0  0
 13 24  1  0  0  0  0
 24 25  1  0  0  0  0
M  END
> <VM2 Rank>
70

> <Conf_Id>
1955

> <Probability>
0.15

> <Sum Probability>
98.34

> <Delta G>
2.049

> <G>
64.125

> <E>
31.867

> <-TS>
32.258

> <U+W>
11.299

> <U>
13.202

> <W>
-1.903

> <W(PB)>
-4.065

> <W(SA)>
2.162

> <Valence>
18.957

> <Coulomb>
-8.753

> <VdW>
2.998

> <VdW6>
-12.294

> <VdW12>
15.293

> <Bond>
0.419

> <Angle>
4.542

> <Pdih>
13.996

> <Idih>
0.000

> <Tether>
0.000

$$$$
VeraChem MOL file


 25 25  0  0  0  0  0  0  0  0999 V2000     
   19.8906   19.0035   20.7945 C   0  0  0  0  0  0  0  0  0  0  0  0
   19.7588   19.0280   19.7041 H   0  0  0  0  0  0  0  0  0  0  0  0
   18.9395   18.6177   21.1828 H   0  0  0  0  0  0  0  0  0  0  0  0
   21.0446   18.0092   21.0894 C   0  0  0  0  0  0  0  0  0  0  0  0
   20.7068   17.0028   20.8069 H   0  0  0  0  0  0  0  0  0  0  0  0
   21.8892   18.2377   20.4252 H   0  0  0  0  0  0  0  0  0  0  0  0
   21.5698   17.9642   22.5448 C   0  0  0  0  0  0  0  0  0  0  0  0
   22.2422   18.8123   22.7183 H   0  0  0  0  0  0  0  0  0  0  0  0
   22.2072   17.0757   22.6495 H   0  0  0  0  0  0  0  0  0  0  0  0
   20.4546   17.9065   23.6217 C   0  0  0  0  0  0  0  0  0  0  0  0
   19.4722   17.7481   23.1627 H   0  0  0  0  0  0  0  0  0  0  0  0
   20.6197   17.0198   24.2473 H   0  0  0  0  0  0  0  0  0  0  0  0
   20.3989   19.1351   24.5585 C   0  0  0  0  0  0  0  0  0  0  0  0
   21.2505   19.0633   25.2504 H   0  0  0  0  0  0  0  0  0  0  0  0
   20.4835   20.5262   23.8767 C   0  0  0  0  0  0  0  0  0  0  0  0
   20.2723   21.2802   24.6462 H   0  0  0  0  0  0  0  0  0  0  0  0
   21.5156   20.7326   23.5694 H   0  0  0  0  0  0  0  0  0  0  0  0
   19.5221   20.7767   22.6853 C   0  0  0  0  0  0  0  0  0  0  0  0
   19.2777   21.8477   22.6923 H   0  0  0  0  0  0  0  0  0  0  0  0
   18.5657   20.2595   22.8416 H   0  0  0  0  0  0  0  0  0  0  0  0
   20.1090   20.4572   21.2824 C   0  0  0  0  0  0  0  0  0  0  0  0
   21.1702   20.7337   21.2228 H   0  0  0  0  0  0  0  0  0  0  0  0
   19.5966   21.1142   20.5662 H   0  0  0  0  0  0  0  0  0  0  0  0
   19.1908   19.0643   25.3069 O   0  0  0  0  0  0  0  0  0  0  0  0
   19.1762   19.8483   25.8934 H   0  0  0  0  0  0  0  0  0  0  0  0
  1  2  1  0  0  0  0
  1  3  1  0  0  0  0
  1  4  1  0  0  0  0
  4  5  1  0  0  0  0
  4  6  1  0  0  0  0
  4  7  1  0  0  0  0
  7  8  1  0  0  0  0
  7  9  1  0  0  0  0
  7 10  1  0  0  0  0
 10 11  1  0  0  0  0
 10 12  1  0  0  0  0
 10 13  1  0  0  0  0
 13 14  1  0  0  0  0
 13 15  1  0  0  0  0
 15 16  1  0  0  0  0
 15 17  1  0  0  0  0
 15 18  1  0  0  0  0
 18 19  1  0  0  0  0
 18 20  1  0  0  0  0
  1 21  1  0  0  0  0
 18 21  1  0  0  0  0
 21 22  1  0  0  0  0
 21 23  1  0  0  0  0
 13 24  1  0  0  0  0
 24 25  1  0  0  0  0
M  END
> <VM2 Rank>
71

> <Conf_Id>
397

> <Probability>
0.14

> <Sum Probability>
98.48

> <Delta G>
2.110

> <G>
64.186

> <E>
31.920

> <-TS>
32.266

> <U+W>
11.352

> <U>
13.643

> <W>
-2.290

> <W(PB)>
-4.412

> <W(SA)>
2.122

> <Valence>
18.609

> <Coulomb>
-7.808

> <VdW>
2.842

> <VdW6>
-12.553

> <VdW12>
15.395

> <Bond>
0.434

> <Angle>
4.744

> <Pdih>
13.432

> <Idih>
0.000

> <Tether>
0.000

$$$$
VeraChem MOL file


 25 25  0  0  0  0  0  0  0  0999 V2000     
   20.8966   19.3562   21.0011 C   0  0  0  0  0  0  0  0  0  0  0  0
   21.8694   19.5615   21.4621 H   0  0  0  0  0  0  0  0  0  0  0  0
   21.1125   19.2634   19.9279 H   0  0  0  0  0  0  0  0  0  0  0  0
   20.3103   18.0144   21.5052 C   0  0  0  0  0  0  0  0  0  0  0  0
   19.2433   18.1142   21.7333 H   0  0  0  0  0  0  0  0  0  0  0  0
   20.3480   17.2869   20.6828 H   0  0  0  0  0  0  0  0  0  0  0  0
   21.0630   17.4017   22.7126 C   0  0  0  0  0  0  0  0  0  0  0  0
   21.9781   16.9236   22.3373 H   0  0  0  0  0  0  0  0  0  0  0  0
   20.4566   16.5843   23.1262 H   0  0  0  0  0  0  0  0  0  0  0  0
   21.4769   18.3659   23.8627 C   0  0  0  0  0  0  0  0  0  0  0  0
   21.8944   17.7450   24.6661 H   0  0  0  0  0  0  0  0  0  0  0  0
   22.3138   18.9989   23.5446 H   0  0  0  0  0  0  0  0  0  0  0  0
   20.3812   19.2562   24.4983 C   0  0  0  0  0  0  0  0  0  0  0  0
   20.7328   19.4821   25.5154 H   0  0  0  0  0  0  0  0  0  0  0  0
   20.1670   20.6378   23.8180 C   0  0  0  0  0  0  0  0  0  0  0  0
   19.7125   21.2841   24.5803 H   0  0  0  0  0  0  0  0  0  0  0  0
   21.1367   21.1005   23.5944 H   0  0  0  0  0  0  0  0  0  0  0  0
   19.2484   20.7016   22.5661 C   0  0  0  0  0  0  0  0  0  0  0  0
   18.7525   21.6819   22.5708 H   0  0  0  0  0  0  0  0  0  0  0  0
   18.4248   19.9826   22.6452 H   0  0  0  0  0  0  0  0  0  0  0  0
   19.9593   20.5724   21.1935 C   0  0  0  0  0  0  0  0  0  0  0  0
   20.5374   21.4870   21.0039 H   0  0  0  0  0  0  0  0  0  0  0  0
   19.1857   20.5430   20.4140 H   0  0  0  0  0  0  0  0  0  0  0  0
   19.1614   18.5368   24.6024 O   0  0  0  0  0  0  0  0  0  0  0  0
   18.9765   18.2354   23.6911 H   0  0  0  0  0  0  0  0  0  0  0  0
  1  2  1  0  0  0  0
  1  3  1  0  0  0  0
  1  4  1  0  0  0  0
  4  5  1  0  0  0  0
  4  6  1  0  0  0  0
  4  7  1  0  0  0  0
  7  8  1  0  0  0  0
  7  9  1  0  0  0  0
  7 10  1  0  0  0  0
 10 11  1  0  0  0  0
 10 12  1  0  0  0  0
 10 13  1  0  0  0  0
 13 14  1  0  0  0  0
 13 15  1  0  0  0  0
 15 16  1  0  0  0  0
 15 17  1  0  0  0  0
 15 18  1  0  0  0  0
 18 19  1  0  0  0  0
 18 20  1  0  0  0  0
  1 21  1  0  0  0  0
 18 21  1  0  0  0  0
 21 22  1  0  0  0  0
 21 23  1  0  0  0  0
 13 24  1  0  0  0  0
 24 25  1  0  0  0  0
M  END
> <VM2 Rank>
72

> <Conf_Id>
878

> <Probability>
0.13

> <Sum Probability>
98.61

> <Delta G>
2.116

> <G>
64.192

> <E>
31.539

> <-TS>
32.652

> <U+W>
10.972

> <U>
12.265

> <W>
-1.293

> <W(PB)>
-3.431

> <W(SA)>
2.138

> <Valence>
19.257

> <Coulomb>
-9.838

> <VdW>
2.845

> <VdW6>
-13.716

> <VdW12>
16.562

> <Bond>
0.508

> <Angle>
6.449

> <Pdih>
12.301

> <Idih>
0.000

> <Tether>
0.000

$$$$
VeraChem MOL file


 25 25  0  0  0  0  0  0  0  0999 V2000     
   20.9472   19.3957   20.7691 C   0  0  0  0  0  0  0  0  0  0  0  0
   21.8694   19.8535   21.1486 H   0  0  0  0  0  0  0  0  0  0  0  0
   21.0469   19.4300   19.6755 H   0  0  0  0  0  0  0  0  0  0  0  0
   20.8741   17.8989   21.1707 C   0  0  0  0  0  0  0  0  0  0  0  0
   20.1489   17.3913   20.5203 H   0  0  0  0  0  0  0  0  0  0  0  0
   21.8468   17.4387   20.9496 H   0  0  0  0  0  0  0  0  0  0  0  0
   20.5037   17.5918   22.6419 C   0  0  0  0  0  0  0  0  0  0  0  0
   20.7066   16.5292   22.8321 H   0  0  0  0  0  0  0  0  0  0  0  0
   19.4213   17.6971   22.7795 H   0  0  0  0  0  0  0  0  0  0  0  0
   21.2800   18.4398   23.6841 C   0  0  0  0  0  0  0  0  0  0  0  0
   21.8026   17.7605   24.3705 H   0  0  0  0  0  0  0  0  0  0  0  0
   22.0790   19.0150   23.2044 H   0  0  0  0  0  0  0  0  0  0  0  0
   20.4051   19.3955   24.5299 C   0  0  0  0  0  0  0  0  0  0  0  0
   21.0852   20.0992   25.0313 H   0  0  0  0  0  0  0  0  0  0  0  0
   19.3460   20.2242   23.7593 C   0  0  0  0  0  0  0  0  0  0  0  0
   18.4921   19.5957   23.4774 H   0  0  0  0  0  0  0  0  0  0  0  0
   18.9385   20.9564   24.4686 H   0  0  0  0  0  0  0  0  0  0  0  0
   19.8560   21.0070   22.5218 C   0  0  0  0  0  0  0  0  0  0  0  0
   20.8827   21.3632   22.6809 H   0  0  0  0  0  0  0  0  0  0  0  0
   19.2424   21.9152   22.4447 H   0  0  0  0  0  0  0  0  0  0  0  0
   19.7252   20.2611   21.1650 C   0  0  0  0  0  0  0  0  0  0  0  0
   19.6143   21.0303   20.3883 H   0  0  0  0  0  0  0  0  0  0  0  0
   18.7997   19.6711   21.1240 H   0  0  0  0  0  0  0  0  0  0  0  0
   19.7267   18.6289   25.5182 O   0  0  0  0  0  0  0  0  0  0  0  0
   19.2226   19.2620   26.0701 H   0  0  0  0  0  0  0  0  0  0  0  0
  1  2  1  0  0  0  0
  1  3  1  0  0  0  0
  1  4  1  0  0  0  0
  4  5  1  0  0  0  0
  4  6  1  0  0  0  0
  4  7  1  0  0  0  0
  7  8  1  0  0  0  0
  7  9  1  0  0  0  0
  7 10  1  0  0  0  0
 10 11  1  0  0  0  0
 10 12  1  0  0  0  0
 10 13  1  0  0  0  0
 13 14  1  0  0  0  0
 13 15  1  0  0  0  0
 15 16  1  0  0  0  0
 15 17  1  0  0  0  0
 15 18  1  0  0  0  0
 18 19  1  0  0  0  0
 18 20  1  0  0  0  0
  1 21  1  0  0  0  0
 18 21  1  0  0  0  0
 21 22  1  0  0  0  0
 21 23  1  0  0  0  0
 13 24  1  0  0  0  0
 24 25  1  0  0  0  0
M  END
> <VM2 Rank>
73

> <Conf_Id>
928

> <Probability>
0.13

> <Sum Probability>
98.74

> <Delta G>
2.132

> <G>
64.207

> <E>
31.908

> <-TS>
32.299

> <U+W>
11.341

> <U>
13.665

> <W>
-2.325

> <W(PB)>
-4.460

> <W(SA)>
2.136

> <Valence>
18.607

> <Coulomb>
-7.778

> <VdW>
2.836

> <VdW6>
-12.472

> <VdW12>
15.308

> <Bond>
0.426

> <Angle>
4.743

> <Pdih>
13.438

> <Idih>
0.000

> <Tether>
0.000

$$$$
VeraChem MOL file


 25 25  0  0  0  0  0  0  0  0999 V2000     
   20.2449   19.1927   20.6065 C   0  0  0  0  0  0  0  0  0  0  0  0
   20.6325   19.3333   19.5883 H   0  0  0  0  0  0  0  0  0  0  0  0
   19.2963   18.6511   20.4901 H   0  0  0  0  0  0  0  0  0  0  0  0
   21.2573   18.3250   21.3898 C   0  0  0  0  0  0  0  0  0  0  0  0
   21.6664   17.5828   20.6907 H   0  0  0  0  0  0  0  0  0  0  0  0
   22.1157   18.9337   21.7032 H   0  0  0  0  0  0  0  0  0  0  0  0
   20.6418   17.5514   22.5861 C   0  0  0  0  0  0  0  0  0  0  0  0
   20.9066   16.4920   22.4665 H   0  0  0  0  0  0  0  0  0  0  0  0
   19.5444   17.5791   22.5632 H   0  0  0  0  0  0  0  0  0  0  0  0
   21.1621   18.0062   23.9729 C   0  0  0  0  0  0  0  0  0  0  0  0
   21.0626   17.1623   24.6681 H   0  0  0  0  0  0  0  0  0  0  0  0
   22.2388   18.2110   23.9166 H   0  0  0  0  0  0  0  0  0  0  0  0
   20.4428   19.2150   24.6169 C   0  0  0  0  0  0  0  0  0  0  0  0
   21.0023   19.4464   25.5348 H   0  0  0  0  0  0  0  0  0  0  0  0
   20.4347   20.5106   23.7680 C   0  0  0  0  0  0  0  0  0  0  0  0
   20.2510   21.3455   24.4567 H   0  0  0  0  0  0  0  0  0  0  0  0
   21.4436   20.6879   23.3748 H   0  0  0  0  0  0  0  0  0  0  0  0
   19.3790   20.5988   22.6270 C   0  0  0  0  0  0  0  0  0  0  0  0
   18.8378   21.5464   22.7527 H   0  0  0  0  0  0  0  0  0  0  0  0
   18.6140   19.8165   22.7103 H   0  0  0  0  0  0  0  0  0  0  0  0
   19.9825   20.5959   21.2026 C   0  0  0  0  0  0  0  0  0  0  0  0
   19.2790   21.1109   20.5343 H   0  0  0  0  0  0  0  0  0  0  0  0
   20.9035   21.1939   21.1787 H   0  0  0  0  0  0  0  0  0  0  0  0
   19.1188   18.8475   24.9902 O   0  0  0  0  0  0  0  0  0  0  0  0
   18.6853   19.6642   25.3114 H   0  0  0  0  0  0  0  0  0  0  0  0
  1  2  1  0  0  0  0
  1  3  1  0  0  0  0
  1  4  1  0  0  0  0
  4  5  1  0  0  0  0
  4  6  1  0  0  0  0
  4  7  1  0  0  0  0
  7  8  1  0  0  0  0
  7  9  1  0  0  0  0
  7 10  1  0  0  0  0
 10 11  1  0  0  0  0
 10 12  1  0  0  0  0
 10 13  1  0  0  0  0
 13 14  1  0  0  0  0
 13 15  1  0  0  0  0
 15 16  1  0  0  0  0
 15 17  1  0  0  0  0
 15 18  1  0  0  0  0
 18 19  1  0  0  0  0
 18 20  1  0  0  0  0
  1 21  1  0  0  0  0
 18 21  1  0  0  0  0
 21 22  1  0  0  0  0
 21 23  1  0  0  0  0
 13 24  1  0  0  0  0
 24 25  1  0  0  0  0
M  END
> <VM2 Rank>
74

> <Conf_Id>
1667

> <Probability>
0.13

> <Sum Probability>
98.87

> <Delta G>
2.140

> <G>
64.216

> <E>
32.113

> <-TS>
32.103

> <U+W>
11.545

> <U>
13.660

> <W>
-2.115

> <W(PB)>
-4.226

> <W(SA)>
2.111

> <Valence>
18.998

> <Coulomb>
-7.829

> <VdW>
2.491

> <VdW6>
-12.613

> <VdW12>
15.105

> <Bond>
0.387

> <Angle>
4.271

> <Pdih>
14.339

> <Idih>
0.000

> <Tether>
0.000

$$$$
VeraChem MOL file


 25 25  0  0  0  0  0  0  0  0999 V2000     
   19.8509   19.0517   20.7985 C   0  0  0  0  0  0  0  0  0  0  0  0
   18.9081   18.6547   21.1960 H   0  0  0  0  0  0  0  0  0  0  0  0
   19.7664   18.9364   19.7093 H   0  0  0  0  0  0  0  0  0  0  0  0
   21.0360   18.1791   21.2811 C   0  0  0  0  0  0  0  0  0  0  0  0
   21.1319   17.3490   20.5678 H   0  0  0  0  0  0  0  0  0  0  0  0
   21.9820   18.7327   21.2117 H   0  0  0  0  0  0  0  0  0  0  0  0
   20.8573   17.5447   22.6883 C   0  0  0  0  0  0  0  0  0  0  0  0
   21.4409   16.6140   22.6949 H   0  0  0  0  0  0  0  0  0  0  0  0
   19.8162   17.2359   22.8540 H   0  0  0  0  0  0  0  0  0  0  0  0
   21.3700   18.4064   23.8719 C   0  0  0  0  0  0  0  0  0  0  0  0
   21.7591   17.7269   24.6415 H   0  0  0  0  0  0  0  0  0  0  0  0
   22.2439   18.9880   23.5552 H   0  0  0  0  0  0  0  0  0  0  0  0
   20.3328   19.3343   24.5577 C   0  0  0  0  0  0  0  0  0  0  0  0
   20.8902   19.9897   25.2424 H   0  0  0  0  0  0  0  0  0  0  0  0
   19.4970   20.2391   23.6233 C   0  0  0  0  0  0  0  0  0  0  0  0
   18.6863   19.6554   23.1732 H   0  0  0  0  0  0  0  0  0  0  0  0
   18.9925   20.9862   24.2496 H   0  0  0  0  0  0  0  0  0  0  0  0
   20.3188   20.9813   22.5368 C   0  0  0  0  0  0  0  0  0  0  0  0
   20.1431   22.0609   22.6380 H   0  0  0  0  0  0  0  0  0  0  0  0
   21.3952   20.8567   22.7025 H   0  0  0  0  0  0  0  0  0  0  0  0
   19.9676   20.5720   21.0858 C   0  0  0  0  0  0  0  0  0  0  0  0
   20.7218   21.0038   20.4139 H   0  0  0  0  0  0  0  0  0  0  0  0
   19.0154   21.0445   20.8085 H   0  0  0  0  0  0  0  0  0  0  0  0
   19.4335   18.5344   25.3166 O   0  0  0  0  0  0  0  0  0  0  0  0
   19.9815   17.9716   25.9013 H   0  0  0  0  0  0  0  0  0  0  0  0
  1  2  1  0  0  0  0
  1  3  1  0  0  0  0
  1  4  1  0  0  0  0
  4  5  1  0  0  0  0
  4  6  1  0  0  0  0
  4  7  1  0  0  0  0
  7  8  1  0  0  0  0
  7  9  1  0  0  0  0
  7 10  1  0  0  0  0
 10 11  1  0  0  0  0
 10 12  1  0  0  0  0
 10 13  1  0  0  0  0
 13 14  1  0  0  0  0
 13 15  1  0  0  0  0
 15 16  1  0  0  0  0
 15 17  1  0  0  0  0
 15 18  1  0  0  0  0
 18 19  1  0  0  0  0
 18 20  1  0  0  0  0
  1 21  1  0  0  0  0
 18 21  1  0  0  0  0
 21 22  1  0  0  0  0
 21 23  1  0  0  0  0
 13 24  1  0  0  0  0
 24 25  1  0  0  0  0
M  END
> <VM2 Rank>
75

> <Conf_Id>
641

> <Probability>
0.13

> <Sum Probability>
99.00

> <Delta G>
2.160

> <G>
64.235

> <E>
31.971

> <-TS>
32.264

> <U+W>
11.404

> <U>
13.643

> <W>
-2.239

> <W(PB)>
-4.379

> <W(SA)>
2.140

> <Valence>
18.609

> <Coulomb>
-7.808

> <VdW>
2.842

> <VdW6>
-12.553

> <VdW12>
15.394

> <Bond>
0.434

> <Angle>
4.744

> <Pdih>
13.432

> <Idih>
0.000

> <Tether>
0.000

$$$$
VeraChem MOL file


 25 25  0  0  0  0  0  0  0  0999 V2000     
   20.9248   19.5413   20.7806 C   0  0  0  0  0  0  0  0  0  0  0  0
   21.8943   19.8680   21.1775 H   0  0  0  0  0  0  0  0  0  0  0  0
   21.0371   19.5933   19.6890 H   0  0  0  0  0  0  0  0  0  0  0  0
   20.6669   18.0632   21.1647 C   0  0  0  0  0  0  0  0  0  0  0  0
   19.5962   17.8259   21.1053 H   0  0  0  0  0  0  0  0  0  0  0  0
   21.1450   17.4451   20.3924 H   0  0  0  0  0  0  0  0  0  0  0  0
   21.2652   17.6213   22.5290 C   0  0  0  0  0  0  0  0  0  0  0  0
   22.2402   18.0950   22.7063 H   0  0  0  0  0  0  0  0  0  0  0  0
   21.4751   16.5458   22.4496 H   0  0  0  0  0  0  0  0  0  0  0  0
   20.3312   17.8075   23.7527 C   0  0  0  0  0  0  0  0  0  0  0  0
   19.2877   17.6493   23.4532 H   0  0  0  0  0  0  0  0  0  0  0  0
   20.5497   16.9981   24.4614 H   0  0  0  0  0  0  0  0  0  0  0  0
   20.4813   19.1384   24.5328 C   0  0  0  0  0  0  0  0  0  0  0  0
   21.4516   19.1195   25.0497 H   0  0  0  0  0  0  0  0  0  0  0  0
   20.4372   20.4373   23.6929 C   0  0  0  0  0  0  0  0  0  0  0  0
   20.3151   21.2835   24.3819 H   0  0  0  0  0  0  0  0  0  0  0  0
   21.4164   20.5984   23.2297 H   0  0  0  0  0  0  0  0  0  0  0  0
   19.3055   20.4931   22.6327 C   0  0  0  0  0  0  0  0  0  0  0  0
   18.6942   21.3867   22.8178 H   0  0  0  0  0  0  0  0  0  0  0  0
   18.6127   19.6523   22.7549 H   0  0  0  0  0  0  0  0  0  0  0  0
   19.8081   20.5456   21.1697 C   0  0  0  0  0  0  0  0  0  0  0  0
   20.1735   21.5601   20.9597 H   0  0  0  0  0  0  0  0  0  0  0  0
   18.9469   20.3948   20.5046 H   0  0  0  0  0  0  0  0  0  0  0  0
   19.4438   19.1953   25.5049 O   0  0  0  0  0  0  0  0  0  0  0  0
   19.5266   18.3884   26.0541 H   0  0  0  0  0  0  0  0  0  0  0  0
  1  2  1  0  0  0  0
  1  3  1  0  0  0  0
  1  4  1  0  0  0  0
  4  5  1  0  0  0  0
  4  6  1  0  0  0  0
  4  7  1  0  0  0  0
  7  8  1  0  0  0  0
  7  9  1  0  0  0  0
  7 10  1  0  0  0  0
 10 11  1  0  0  0  0
 10 12  1  0  0  0  0
 10 13  1  0  0  0  0
 13 14  1  0  0  0  0
 13 15  1  0  0  0  0
 15 16  1  0  0  0  0
 15 17  1  0  0  0  0
 15 18  1  0  0  0  0
 18 19  1  0  0  0  0
 18 20  1  0  0  0  0
  1 21  1  0  0  0  0
 18 21  1  0  0  0  0
 21 22  1  0  0  0  0
 21 23  1  0  0  0  0
 13 24  1  0  0  0  0
 24 25  1  0  0  0  0
M  END
> <VM2 Rank>
76

> <Conf_Id>
219

> <Probability>
0.12

> <Sum Probability>
99.12

> <Delta G>
2.169

> <G>
64.245

> <E>
31.946

> <-TS>
32.299

> <U+W>
11.378

> <U>
13.665

> <W>
-2.287

> <W(PB)>
-4.435

> <W(SA)>
2.148

> <Valence>
18.607

> <Coulomb>
-7.778

> <VdW>
2.836

> <VdW6>
-12.471

> <VdW12>
15.307

> <Bond>
0.426

> <Angle>
4.743

> <Pdih>
13.438

> <Idih>
0.000

> <Tether>
0.000

$$$$
VeraChem MOL file


 25 25  0  0  0  0  0  0  0  0999 V2000     
   20.2395   19.1469   20.6074 C   0  0  0  0  0  0  0  0  0  0  0  0
   19.1988   18.8119   20.5012 H   0  0  0  0  0  0  0  0  0  0  0  0
   20.5990   19.3249   19.5847 H   0  0  0  0  0  0  0  0  0  0  0  0
   21.1005   18.0132   21.2128 C   0  0  0  0  0  0  0  0  0  0  0  0
   21.0013   17.1382   20.5560 H   0  0  0  0  0  0  0  0  0  0  0  0
   22.1634   18.2881   21.1794 H   0  0  0  0  0  0  0  0  0  0  0  0
   20.7033   17.5841   22.6450 C   0  0  0  0  0  0  0  0  0  0  0  0
   21.0372   16.5466   22.7818 H   0  0  0  0  0  0  0  0  0  0  0  0
   19.6101   17.5495   22.7351 H   0  0  0  0  0  0  0  0  0  0  0  0
   21.3578   18.4364   23.7717 C   0  0  0  0  0  0  0  0  0  0  0  0
   21.8533   17.7457   24.4663 H   0  0  0  0  0  0  0  0  0  0  0  0
   22.1677   19.0556   23.3660 H   0  0  0  0  0  0  0  0  0  0  0  0
   20.4128   19.3282   24.6148 C   0  0  0  0  0  0  0  0  0  0  0  0
   20.9665   19.5958   25.5264 H   0  0  0  0  0  0  0  0  0  0  0  0
   20.0036   20.6669   23.9563 C   0  0  0  0  0  0  0  0  0  0  0  0
   19.3182   21.1724   24.6492 H   0  0  0  0  0  0  0  0  0  0  0  0
   20.8816   21.3216   23.8867 H   0  0  0  0  0  0  0  0  0  0  0  0
   19.3088   20.5731   22.5746 C   0  0  0  0  0  0  0  0  0  0  0  0
   18.5879   19.7450   22.5662 H   0  0  0  0  0  0  0  0  0  0  0  0
   18.7059   21.4824   22.4470 H   0  0  0  0  0  0  0  0  0  0  0  0
   20.2881   20.4893   21.3736 C   0  0  0  0  0  0  0  0  0  0  0  0
   21.3185   20.7150   21.6782 H   0  0  0  0  0  0  0  0  0  0  0  0
   20.0130   21.2834   20.6659 H   0  0  0  0  0  0  0  0  0  0  0  0
   19.2496   18.6049   25.0039 O   0  0  0  0  0  0  0  0  0  0  0  0
   19.5608   17.7376   25.3340 H   0  0  0  0  0  0  0  0  0  0  0  0
  1  2  1  0  0  0  0
  1  3  1  0  0  0  0
  1  4  1  0  0  0  0
  4  5  1  0  0  0  0
  4  6  1  0  0  0  0
  4  7  1  0  0  0  0
  7  8  1  0  0  0  0
  7  9  1  0  0  0  0
  7 10  1  0  0  0  0
 10 11  1  0  0  0  0
 10 12  1  0  0  0  0
 10 13  1  0  0  0  0
 13 14  1  0  0  0  0
 13 15  1  0  0  0  0
 15 16  1  0  0  0  0
 15 17  1  0  0  0  0
 15 18  1  0  0  0  0
 18 19  1  0  0  0  0
 18 20  1  0  0  0  0
  1 21  1  0  0  0  0
 18 21  1  0  0  0  0
 21 22  1  0  0  0  0
 21 23  1  0  0  0  0
 13 24  1  0  0  0  0
 24 25  1  0  0  0  0
M  END
> <VM2 Rank>
77

> <Conf_Id>
84

> <Probability>
0.12

> <Sum Probability>
99.24

> <Delta G>
2.178

> <G>
64.253

> <E>
32.151

> <-TS>
32.102

> <U+W>
11.583

> <U>
13.660

> <W>
-2.077

> <W(PB)>
-4.202

> <W(SA)>
2.125

> <Valence>
18.998

> <Coulomb>
-7.829

> <VdW>
2.491

> <VdW6>
-12.613

> <VdW12>
15.104

> <Bond>
0.387

> <Angle>
4.271

> <Pdih>
14.340

> <Idih>
0.000

> <Tether>
0.000

$$$$
VeraChem MOL file


 25 25  0  0  0  0  0  0  0  0999 V2000     
   19.8961   19.0049   20.7866 C   0  0  0  0  0  0  0  0  0  0  0  0
   18.9412   18.6199   21.1664 H   0  0  0  0  0  0  0  0  0  0  0  0
   19.7729   19.0330   19.6953 H   0  0  0  0  0  0  0  0  0  0  0  0
   21.0455   18.0072   21.0881 C   0  0  0  0  0  0  0  0  0  0  0  0
   20.7054   17.0006   20.8090 H   0  0  0  0  0  0  0  0  0  0  0  0
   21.8926   18.2306   20.4253 H   0  0  0  0  0  0  0  0  0  0  0  0
   21.5669   17.9686   22.5448 C   0  0  0  0  0  0  0  0  0  0  0  0
   22.2336   18.8216   22.7171 H   0  0  0  0  0  0  0  0  0  0  0  0
   22.2092   17.0842   22.6542 H   0  0  0  0  0  0  0  0  0  0  0  0
   20.4485   17.9090   23.6182 C   0  0  0  0  0  0  0  0  0  0  0  0
   19.4670   17.7604   23.1539 H   0  0  0  0  0  0  0  0  0  0  0  0
   20.6098   17.0158   24.2355 H   0  0  0  0  0  0  0  0  0  0  0  0
   20.3997   19.1349   24.5591 C   0  0  0  0  0  0  0  0  0  0  0  0
   21.2582   19.0653   25.2427 H   0  0  0  0  0  0  0  0  0  0  0  0
   20.4748   20.5273   23.8795 C   0  0  0  0  0  0  0  0  0  0  0  0
   20.2448   21.2721   24.6529 H   0  0  0  0  0  0  0  0  0  0  0  0
   21.5070   20.7473   23.5824 H   0  0  0  0  0  0  0  0  0  0  0  0
   19.5188   20.7721   22.6820 C   0  0  0  0  0  0  0  0  0  0  0  0
   19.2687   21.8417   22.6886 H   0  0  0  0  0  0  0  0  0  0  0  0
   18.5644   20.2504   22.8351 H   0  0  0  0  0  0  0  0  0  0  0  0
   20.1139   20.4564   21.2814 C   0  0  0  0  0  0  0  0  0  0  0  0
   21.1757   20.7317   21.2294 H   0  0  0  0  0  0  0  0  0  0  0  0
   19.6068   21.1167   20.5645 H   0  0  0  0  0  0  0  0  0  0  0  0
   19.1997   19.0627   25.3203 O   0  0  0  0  0  0  0  0  0  0  0  0
   19.2029   18.1925   25.7700 H   0  0  0  0  0  0  0  0  0  0  0  0
  1  2  1  0  0  0  0
  1  3  1  0  0  0  0
  1  4  1  0  0  0  0
  4  5  1  0  0  0  0
  4  6  1  0  0  0  0
  4  7  1  0  0  0  0
  7  8  1  0  0  0  0
  7  9  1  0  0  0  0
  7 10  1  0  0  0  0
 10 11  1  0  0  0  0
 10 12  1  0  0  0  0
 10 13  1  0  0  0  0
 13 14  1  0  0  0  0
 13 15  1  0  0  0  0
 15 16  1  0  0  0  0
 15 17  1  0  0  0  0
 15 18  1  0  0  0  0
 18 19  1  0  0  0  0
 18 20  1  0  0  0  0
  1 21  1  0  0  0  0
 18 21  1  0  0  0  0
 21 22  1  0  0  0  0
 21 23  1  0  0  0  0
 13 24  1  0  0  0  0
 24 25  1  0  0  0  0
M  END
> <VM2 Rank>
78

> <Conf_Id>
110

> <Probability>
0.10

> <Sum Probability>
99.35

> <Delta G>
2.275

> <G>
64.350

> <E>
32.027

> <-TS>
32.324

> <U+W>
11.459

> <U>
13.691

> <W>
-2.232

> <W(PB)>
-4.350

> <W(SA)>
2.119

> <Valence>
18.570

> <Coulomb>
-7.751

> <VdW>
2.872

> <VdW6>
-12.549

> <VdW12>
15.421

> <Bond>
0.436

> <Angle>
4.707

> <Pdih>
13.427

> <Idih>
0.000

> <Tether>
0.000

$$$$
VeraChem MOL file


 25 25  0  0  0  0  0  0  0  0999 V2000     
   19.8560   19.0553   20.7905 C   0  0  0  0  0  0  0  0  0  0  0  0
   19.7804   18.9437   19.7002 H   0  0  0  0  0  0  0  0  0  0  0  0
   18.9108   18.6553   21.1791 H   0  0  0  0  0  0  0  0  0  0  0  0
   21.0387   18.1831   21.2801 C   0  0  0  0  0  0  0  0  0  0  0  0
   21.9846   18.7375   21.2186 H   0  0  0  0  0  0  0  0  0  0  0  0
   21.1404   17.3544   20.5659 H   0  0  0  0  0  0  0  0  0  0  0  0
   20.8507   17.5454   22.6849 C   0  0  0  0  0  0  0  0  0  0  0  0
   19.8077   17.2417   22.8471 H   0  0  0  0  0  0  0  0  0  0  0  0
   21.4287   16.6113   22.6910 H   0  0  0  0  0  0  0  0  0  0  0  0
   21.3640   18.3986   23.8749 C   0  0  0  0  0  0  0  0  0  0  0  0
   21.7328   17.7121   24.6485 H   0  0  0  0  0  0  0  0  0  0  0  0
   22.2481   18.9703   23.5687 H   0  0  0  0  0  0  0  0  0  0  0  0
   20.3330   19.3348   24.5583 C   0  0  0  0  0  0  0  0  0  0  0  0
   20.8970   19.9930   25.2349 H   0  0  0  0  0  0  0  0  0  0  0  0
   19.4949   20.2333   23.6199 C   0  0  0  0  0  0  0  0  0  0  0  0
   18.6915   19.6435   23.1642 H   0  0  0  0  0  0  0  0  0  0  0  0
   18.9831   20.9823   24.2379 H   0  0  0  0  0  0  0  0  0  0  0  0
   20.3209   20.9761   22.5371 C   0  0  0  0  0  0  0  0  0  0  0  0
   21.3965   20.8434   22.7017 H   0  0  0  0  0  0  0  0  0  0  0  0
   20.1522   22.0564   22.6432 H   0  0  0  0  0  0  0  0  0  0  0  0
   19.9678   20.5745   21.0847 C   0  0  0  0  0  0  0  0  0  0  0  0
   20.7204   21.0116   20.4143 H   0  0  0  0  0  0  0  0  0  0  0  0
   19.0142   21.0461   20.8108 H   0  0  0  0  0  0  0  0  0  0  0  0
   19.4381   18.5420   25.3298 O   0  0  0  0  0  0  0  0  0  0  0  0
   18.8294   19.1625   25.7815 H   0  0  0  0  0  0  0  0  0  0  0  0
  1  2  1  0  0  0  0
  1  3  1  0  0  0  0
  1  4  1  0  0  0  0
  4  5  1  0  0  0  0
  4  6  1  0  0  0  0
  4  7  1  0  0  0  0
  7  8  1  0  0  0  0
  7  9  1  0  0  0  0
  7 10  1  0  0  0  0
 10 11  1  0  0  0  0
 10 12  1  0  0  0  0
 10 13  1  0  0  0  0
 13 14  1  0  0  0  0
 13 15  1  0  0  0  0
 15 16  1  0  0  0  0
 15 17  1  0  0  0  0
 15 18  1  0  0  0  0
 18 19  1  0  0  0  0
 18 20  1  0  0  0  0
  1 21  1  0  0  0  0
 18 21  1  0  0  0  0
 21 22  1  0  0  0  0
 21 23  1  0  0  0  0
 13 24  1  0  0  0  0
 24 25  1  0  0  0  0
M  END
> <VM2 Rank>
79

> <Conf_Id>
659

> <Probability>
0.10

> <Sum Probability>
99.45

> <Delta G>
2.300

> <G>
64.375

> <E>
32.051

> <-TS>
32.324

> <U+W>
11.484

> <U>
13.691

> <W>
-2.207

> <W(PB)>
-4.339

> <W(SA)>
2.132

> <Valence>
18.570

> <Coulomb>
-7.751

> <VdW>
2.872

> <VdW6>
-12.549

> <VdW12>
15.421

> <Bond>
0.436

> <Angle>
4.706

> <Pdih>
13.427

> <Idih>
0.000

> <Tether>
0.000

$$$$
VeraChem MOL file


 25 25  0  0  0  0  0  0  0  0999 V2000     
   20.2304   19.1458   20.6106 C   0  0  0  0  0  0  0  0  0  0  0  0
   19.1914   18.8022   20.5160 H   0  0  0  0  0  0  0  0  0  0  0  0
   20.5795   19.3199   19.5837 H   0  0  0  0  0  0  0  0  0  0  0  0
   21.1061   18.0239   21.2155 C   0  0  0  0  0  0  0  0  0  0  0  0
   21.0232   17.1505   20.5542 H   0  0  0  0  0  0  0  0  0  0  0  0
   22.1648   18.3148   21.1881 H   0  0  0  0  0  0  0  0  0  0  0  0
   20.7081   17.5803   22.6431 C   0  0  0  0  0  0  0  0  0  0  0  0
   21.0467   16.5431   22.7700 H   0  0  0  0  0  0  0  0  0  0  0  0
   19.6154   17.5377   22.7355 H   0  0  0  0  0  0  0  0  0  0  0  0
   21.3561   18.4199   23.7828 C   0  0  0  0  0  0  0  0  0  0  0  0
   21.8205   17.7170   24.4866 H   0  0  0  0  0  0  0  0  0  0  0  0
   22.1854   19.0243   23.3950 H   0  0  0  0  0  0  0  0  0  0  0  0
   20.4114   19.3224   24.6153 C   0  0  0  0  0  0  0  0  0  0  0  0
   20.9600   19.5843   25.5316 H   0  0  0  0  0  0  0  0  0  0  0  0
   20.0262   20.6656   23.9518 C   0  0  0  0  0  0  0  0  0  0  0  0
   19.3653   21.1997   24.6468 H   0  0  0  0  0  0  0  0  0  0  0  0
   20.9204   21.2963   23.8655 H   0  0  0  0  0  0  0  0  0  0  0  0
   19.3128   20.5782   22.5794 C   0  0  0  0  0  0  0  0  0  0  0  0
   18.5873   19.7539   22.5750 H   0  0  0  0  0  0  0  0  0  0  0  0
   18.7141   21.4916   22.4610 H   0  0  0  0  0  0  0  0  0  0  0  0
   20.2773   20.4933   21.3669 C   0  0  0  0  0  0  0  0  0  0  0  0
   21.3099   20.7289   21.6567 H   0  0  0  0  0  0  0  0  0  0  0  0
   19.9868   21.2800   20.6570 H   0  0  0  0  0  0  0  0  0  0  0  0
   19.2355   18.6136   24.9946 O   0  0  0  0  0  0  0  0  0  0  0  0
   18.6779   19.2424   25.4962 H   0  0  0  0  0  0  0  0  0  0  0  0
  1  2  1  0  0  0  0
  1  3  1  0  0  0  0
  1  4  1  0  0  0  0
  4  5  1  0  0  0  0
  4  6  1  0  0  0  0
  4  7  1  0  0  0  0
  7  8  1  0  0  0  0
  7  9  1  0  0  0  0
  7 10  1  0  0  0  0
 10 11  1  0  0  0  0
 10 12  1  0  0  0  0
 10 13  1  0  0  0  0
 13 14  1  0  0  0  0
 13 15  1  0  0  0  0
 15 16  1  0  0  0  0
 15 17  1  0  0  0  0
 15 18  1  0  0  0  0
 18 19  1  0  0  0  0
 18 20  1  0  0  0  0
  1 21  1  0  0  0  0
 18 21  1  0  0  0  0
 21 22  1  0  0  0  0
 21 23  1  0  0  0  0
 13 24  1  0  0  0  0
 24 25  1  0  0  0  0
M  END
> <VM2 Rank>
80

> <Conf_Id>
576

> <Probability>
0.10

> <Sum Probability>
99.54

> <Delta G>
2.303

> <G>
64.379

> <E>
32.413

> <-TS>
31.965

> <U+W>
11.846

> <U>
14.106

> <W>
-2.260

> <W(PB)>
-4.387

> <W(SA)>
2.127

> <Valence>
19.023

> <Coulomb>
-7.308

> <VdW>
2.390

> <VdW6>
-12.497

> <VdW12>
14.887

> <Bond>
0.377

> <Angle>
4.356

> <Pdih>
14.291

> <Idih>
0.000

> <Tether>
0.000

$$$$
VeraChem MOL file


 25 25  0  0  0  0  0  0  0  0999 V2000     
   20.2362   19.1858   20.6098 C   0  0  0  0  0  0  0  0  0  0  0  0
   19.2824   18.6510   20.5058 H   0  0  0  0  0  0  0  0  0  0  0  0
   20.6131   19.3210   19.5868 H   0  0  0  0  0  0  0  0  0  0  0  0
   21.2523   18.3140   21.3828 C   0  0  0  0  0  0  0  0  0  0  0  0
   21.6450   17.5653   20.6812 H   0  0  0  0  0  0  0  0  0  0  0  0
   22.1197   18.9178   21.6805 H   0  0  0  0  0  0  0  0  0  0  0  0
   20.6486   17.5509   22.5914 C   0  0  0  0  0  0  0  0  0  0  0  0
   20.9195   16.4920   22.4814 H   0  0  0  0  0  0  0  0  0  0  0  0
   19.5509   17.5723   22.5732 H   0  0  0  0  0  0  0  0  0  0  0  0
   21.1778   18.0245   23.9683 C   0  0  0  0  0  0  0  0  0  0  0  0
   21.1168   17.1796   24.6665 H   0  0  0  0  0  0  0  0  0  0  0  0
   22.2477   18.2579   23.8941 H   0  0  0  0  0  0  0  0  0  0  0  0
   20.4389   19.2186   24.6171 C   0  0  0  0  0  0  0  0  0  0  0  0
   20.9910   19.4507   25.5394 H   0  0  0  0  0  0  0  0  0  0  0  0
   20.4214   20.5210   23.7784 C   0  0  0  0  0  0  0  0  0  0  0  0
   20.2077   21.3413   24.4758 H   0  0  0  0  0  0  0  0  0  0  0  0
   21.4320   20.7228   23.4022 H   0  0  0  0  0  0  0  0  0  0  0  0
   19.3789   20.6046   22.6252 C   0  0  0  0  0  0  0  0  0  0  0  0
   18.8410   21.5552   22.7410 H   0  0  0  0  0  0  0  0  0  0  0  0
   18.6085   19.8278   22.7116 H   0  0  0  0  0  0  0  0  0  0  0  0
   19.9926   20.5921   21.2052 C   0  0  0  0  0  0  0  0  0  0  0  0
   20.9224   21.1764   21.1867 H   0  0  0  0  0  0  0  0  0  0  0  0
   19.3007   21.1175   20.5328 H   0  0  0  0  0  0  0  0  0  0  0  0
   19.1174   18.8315   24.9819 O   0  0  0  0  0  0  0  0  0  0  0  0
   19.1984   17.9980   25.4884 H   0  0  0  0  0  0  0  0  0  0  0  0
  1  2  1  0  0  0  0
  1  3  1  0  0  0  0
  1  4  1  0  0  0  0
  4  5  1  0  0  0  0
  4  6  1  0  0  0  0
  4  7  1  0  0  0  0
  7  8  1  0  0  0  0
  7  9  1  0  0  0  0
  7 10  1  0  0  0  0
 10 11  1  0  0  0  0
 10 12  1  0  0  0  0
 10 13  1  0  0  0  0
 13 14  1  0  0  0  0
 13 15  1  0  0  0  0
 15 16  1  0  0  0  0
 15 17  1  0  0  0  0
 15 18  1  0  0  0  0
 18 19  1  0  0  0  0
 18 20  1  0  0  0  0
  1 21  1  0  0  0  0
 18 21  1  0  0  0  0
 21 22  1  0  0  0  0
 21 23  1  0  0  0  0
 13 24  1  0  0  0  0
 24 25  1  0  0  0  0
M  END
> <VM2 Rank>
81

> <Conf_Id>
1680

> <Probability>
0.10

> <Sum Probability>
99.64

> <Delta G>
2.306

> <G>
64.381

> <E>
32.417

> <-TS>
31.964

> <U+W>
11.849

> <U>
14.106

> <W>
-2.256

> <W(PB)>
-4.382

> <W(SA)>
2.126

> <Valence>
19.023

> <Coulomb>
-7.308

> <VdW>
2.390

> <VdW6>
-12.497

> <VdW12>
14.887

> <Bond>
0.376

> <Angle>
4.356

> <Pdih>
14.291

> <Idih>
0.000

> <Tether>
0.000

$$$$
VeraChem MOL file


 25 25  0  0  0  0  0  0  0  0999 V2000     
   20.3868   19.3407   20.7209 C   0  0  0  0  0  0  0  0  0  0  0  0
   19.8718   18.7610   19.9427 H   0  0  0  0  0  0  0  0  0  0  0  0
   20.9555   20.1140   20.1873 H   0  0  0  0  0  0  0  0  0  0  0  0
   21.3787   18.3882   21.4375 C   0  0  0  0  0  0  0  0  0  0  0  0
   21.8326   17.7524   20.6651 H   0  0  0  0  0  0  0  0  0  0  0  0
   22.2203   18.9537   21.8530 H   0  0  0  0  0  0  0  0  0  0  0  0
   20.7579   17.4666   22.5202 C   0  0  0  0  0  0  0  0  0  0  0  0
   21.2009   16.4692   22.3963 H   0  0  0  0  0  0  0  0  0  0  0  0
   19.6827   17.3200   22.3587 H   0  0  0  0  0  0  0  0  0  0  0  0
   21.0410   17.9078   23.9825 C   0  0  0  0  0  0  0  0  0  0  0  0
   20.7482   17.0832   24.6454 H   0  0  0  0  0  0  0  0  0  0  0  0
   22.1250   18.0166   24.1163 H   0  0  0  0  0  0  0  0  0  0  0  0
   20.3471   19.1907   24.5099 C   0  0  0  0  0  0  0  0  0  0  0  0
   20.7102   19.3113   25.5408 H   0  0  0  0  0  0  0  0  0  0  0  0
   20.7322   20.5024   23.7721 C   0  0  0  0  0  0  0  0  0  0  0  0
   20.8009   21.2939   24.5296 H   0  0  0  0  0  0  0  0  0  0  0  0
   21.7531   20.4178   23.3857 H   0  0  0  0  0  0  0  0  0  0  0  0
   19.7872   21.0265   22.6538 C   0  0  0  0  0  0  0  0  0  0  0  0
   18.9005   21.4651   23.1307 H   0  0  0  0  0  0  0  0  0  0  0  0
   20.2860   21.8602   22.1415 H   0  0  0  0  0  0  0  0  0  0  0  0
   19.2953   20.0133   21.5903 C   0  0  0  0  0  0  0  0  0  0  0  0
   18.6244   20.5558   20.9106 H   0  0  0  0  0  0  0  0  0  0  0  0
   18.6571   19.2535   22.0541 H   0  0  0  0  0  0  0  0  0  0  0  0
   18.9379   19.0069   24.5727 O   0  0  0  0  0  0  0  0  0  0  0  0
   18.5536   19.8994   24.6819 H   0  0  0  0  0  0  0  0  0  0  0  0
  1  2  1  0  0  0  0
  1  3  1  0  0  0  0
  1  4  1  0  0  0  0
  4  5  1  0  0  0  0
  4  6  1  0  0  0  0
  4  7  1  0  0  0  0
  7  8  1  0  0  0  0
  7  9  1  0  0  0  0
  7 10  1  0  0  0  0
 10 11  1  0  0  0  0
 10 12  1  0  0  0  0
 10 13  1  0  0  0  0
 13 14  1  0  0  0  0
 13 15  1  0  0  0  0
 15 16  1  0  0  0  0
 15 17  1  0  0  0  0
 15 18  1  0  0  0  0
 18 19  1  0  0  0  0
 18 20  1  0  0  0  0
  1 21  1  0  0  0  0
 18 21  1  0  0  0  0
 21 22  1  0  0  0  0
 21 23  1  0  0  0  0
 13 24  1  0  0  0  0
 24 25  1  0  0  0  0
M  END
> <VM2 Rank>
82

> <Conf_Id>
1963

> <Probability>
0.08

> <Sum Probability>
99.72

> <Delta G>
2.448

> <G>
64.523

> <E>
31.846

> <-TS>
32.677

> <U+W>
11.278

> <U>
13.108

> <W>
-1.830

> <W(PB)>
-3.947

> <W(SA)>
2.117

> <Valence>
17.759

> <Coulomb>
-7.345

> <VdW>
2.694

> <VdW6>
-13.719

> <VdW12>
16.413

> <Bond>
0.511

> <Angle>
7.046

> <Pdih>
10.202

> <Idih>
0.000

> <Tether>
0.000

$$$$
VeraChem MOL file


 25 25  0  0  0  0  0  0  0  0999 V2000     
   19.6659   18.9852   21.1023 C   0  0  0  0  0  0  0  0  0  0  0  0
   19.4040   18.8913   20.0392 H   0  0  0  0  0  0  0  0  0  0  0  0
   18.7157   18.8126   21.6171 H   0  0  0  0  0  0  0  0  0  0  0  0
   20.6854   17.8552   21.4058 C   0  0  0  0  0  0  0  0  0  0  0  0
   20.1442   16.9126   21.5646 H   0  0  0  0  0  0  0  0  0  0  0  0
   21.2763   17.7004   20.4925 H   0  0  0  0  0  0  0  0  0  0  0  0
   21.6978   18.0726   22.5584 C   0  0  0  0  0  0  0  0  0  0  0  0
   22.2657   18.9981   22.4127 H   0  0  0  0  0  0  0  0  0  0  0  0
   22.4502   17.2768   22.4720 H   0  0  0  0  0  0  0  0  0  0  0  0
   21.1340   17.9947   24.0002 C   0  0  0  0  0  0  0  0  0  0  0  0
   20.6419   17.0240   24.1474 H   0  0  0  0  0  0  0  0  0  0  0  0
   21.9954   17.9863   24.6806 H   0  0  0  0  0  0  0  0  0  0  0  0
   20.1906   19.1232   24.4838 C   0  0  0  0  0  0  0  0  0  0  0  0
   20.3038   19.1553   25.5771 H   0  0  0  0  0  0  0  0  0  0  0  0
   20.5205   20.5484   23.9625 C   0  0  0  0  0  0  0  0  0  0  0  0
   20.2723   21.2404   24.7777 H   0  0  0  0  0  0  0  0  0  0  0  0
   21.6030   20.6593   23.8245 H   0  0  0  0  0  0  0  0  0  0  0  0
   19.7650   21.0570   22.7001 C   0  0  0  0  0  0  0  0  0  0  0  0
   19.9572   22.1361   22.6271 H   0  0  0  0  0  0  0  0  0  0  0  0
   18.6798   20.9745   22.8481 H   0  0  0  0  0  0  0  0  0  0  0  0
   20.1591   20.4356   21.3350 C   0  0  0  0  0  0  0  0  0  0  0  0
   21.2384   20.5241   21.1581 H   0  0  0  0  0  0  0  0  0  0  0  0
   19.6951   21.0614   20.5602 H   0  0  0  0  0  0  0  0  0  0  0  0
   18.8459   18.7710   24.2119 O   0  0  0  0  0  0  0  0  0  0  0  0
   18.7996   18.7598   23.2376 H   0  0  0  0  0  0  0  0  0  0  0  0
  1  2  1  0  0  0  0
  1  3  1  0  0  0  0
  1  4  1  0  0  0  0
  4  5  1  0  0  0  0
  4  6  1  0  0  0  0
  4  7  1  0  0  0  0
  7  8  1  0  0  0  0
  7  9  1  0  0  0  0
  7 10  1  0  0  0  0
 10 11  1  0  0  0  0
 10 12  1  0  0  0  0
 10 13  1  0  0  0  0
 13 14  1  0  0  0  0
 13 15  1  0  0  0  0
 15 16  1  0  0  0  0
 15 17  1  0  0  0  0
 15 18  1  0  0  0  0
 18 19  1  0  0  0  0
 18 20  1  0  0  0  0
  1 21  1  0  0  0  0
 18 21  1  0  0  0  0
 21 22  1  0  0  0  0
 21 23  1  0  0  0  0
 13 24  1  0  0  0  0
 24 25  1  0  0  0  0
M  END
> <VM2 Rank>
83

> <Conf_Id>
855

> <Probability>
0.07

> <Sum Probability>
99.79

> <Delta G>
2.492

> <G>
64.567

> <E>
31.741

> <-TS>
32.826

> <U+W>
11.174

> <U>
12.093

> <W>
-0.919

> <W(PB)>
-3.032

> <W(SA)>
2.112

> <Valence>
19.645

> <Coulomb>
-9.929

> <VdW>
2.377

> <VdW6>
-13.909

> <VdW12>
16.286

> <Bond>
0.498

> <Angle>
8.147

> <Pdih>
11.000

> <Idih>
0.000

> <Tether>
0.000

$$$$
VeraChem MOL file


 25 25  0  0  0  0  0  0  0  0999 V2000     
   20.3883   19.3404   20.7189 C   0  0  0  0  0  0  0  0  0  0  0  0
   19.8738   18.7617   19.9397 H   0  0  0  0  0  0  0  0  0  0  0  0
   20.9578   20.1142   20.1868 H   0  0  0  0  0  0  0  0  0  0  0  0
   21.3784   18.3873   21.4363 C   0  0  0  0  0  0  0  0  0  0  0  0
   22.2197   18.9532   21.8522 H   0  0  0  0  0  0  0  0  0  0  0  0
   21.8328   17.7508   20.6647 H   0  0  0  0  0  0  0  0  0  0  0  0
   20.7559   17.4673   22.5195 C   0  0  0  0  0  0  0  0  0  0  0  0
   21.1986   16.4696   22.3959 H   0  0  0  0  0  0  0  0  0  0  0  0
   19.6810   17.3212   22.3572 H   0  0  0  0  0  0  0  0  0  0  0  0
   21.0430   17.9108   23.9800 C   0  0  0  0  0  0  0  0  0  0  0  0
   20.7663   17.0825   24.6450 H   0  0  0  0  0  0  0  0  0  0  0  0
   22.1273   18.0278   24.1053 H   0  0  0  0  0  0  0  0  0  0  0  0
   20.3474   19.1921   24.5106 C   0  0  0  0  0  0  0  0  0  0  0  0
   20.7156   19.3116   25.5398 H   0  0  0  0  0  0  0  0  0  0  0  0
   20.7320   20.5038   23.7716 C   0  0  0  0  0  0  0  0  0  0  0  0
   20.7929   21.2948   24.5300 H   0  0  0  0  0  0  0  0  0  0  0  0
   21.7537   20.4232   23.3868 H   0  0  0  0  0  0  0  0  0  0  0  0
   19.7848   21.0247   22.6539 C   0  0  0  0  0  0  0  0  0  0  0  0
   20.2732   21.8672   22.1465 H   0  0  0  0  0  0  0  0  0  0  0  0
   18.8941   21.4464   23.1391 H   0  0  0  0  0  0  0  0  0  0  0  0
   19.2964   20.0124   21.5881 C   0  0  0  0  0  0  0  0  0  0  0  0
   18.6245   20.5545   20.9092 H   0  0  0  0  0  0  0  0  0  0  0  0
   18.6587   19.2536   22.0540 H   0  0  0  0  0  0  0  0  0  0  0  0
   18.9377   19.0041   24.5811 O   0  0  0  0  0  0  0  0  0  0  0  0
   18.7915   18.1431   25.0217 H   0  0  0  0  0  0  0  0  0  0  0  0
  1  2  1  0  0  0  0
  1  3  1  0  0  0  0
  1  4  1  0  0  0  0
  4  5  1  0  0  0  0
  4  6  1  0  0  0  0
  4  7  1  0  0  0  0
  7  8  1  0  0  0  0
  7  9  1  0  0  0  0
  7 10  1  0  0  0  0
 10 11  1  0  0  0  0
 10 12  1  0  0  0  0
 10 13  1  0  0  0  0
 13 14  1  0  0  0  0
 13 15  1  0  0  0  0
 15 16  1  0  0  0  0
 15 17  1  0  0  0  0
 15 18  1  0  0  0  0
 18 19  1  0  0  0  0
 18 20  1  0  0  0  0
  1 21  1  0  0  0  0
 18 21  1  0  0  0  0
 21 22  1  0  0  0  0
 21 23  1  0  0  0  0
 13 24  1  0  0  0  0
 24 25  1  0  0  0  0
M  END
> <VM2 Rank>
84

> <Conf_Id>
1531

> <Probability>
0.02

> <Sum Probability>
99.81

> <Delta G>
3.276

> <G>
65.351

> <E>
32.519

> <-TS>
32.832

> <U+W>
11.951

> <U>
13.951

> <W>
-2.000

> <W(PB)>
-4.130

> <W(SA)>
2.130

> <Valence>
17.543

> <Coulomb>
-6.274

> <VdW>
2.682

> <VdW6>
-13.612

> <VdW12>
16.294

> <Bond>
0.512

> <Angle>
7.072

> <Pdih>
9.959

> <Idih>
0.000

> <Tether>
0.000

$$$$
VeraChem MOL file


 25 25  0  0  0  0  0  0  0  0999 V2000     
   20.4829   19.1510   20.7215 C   0  0  0  0  0  0  0  0  0  0  0  0
   21.4446   19.0445   20.2018 H   0  0  0  0  0  0  0  0  0  0  0  0
   19.7176   19.1482   19.9334 H   0  0  0  0  0  0  0  0  0  0  0  0
   20.2358   17.9036   21.6059 C   0  0  0  0  0  0  0  0  0  0  0  0
   19.2401   17.9486   22.0599 H   0  0  0  0  0  0  0  0  0  0  0  0
   20.1928   17.0322   20.9390 H   0  0  0  0  0  0  0  0  0  0  0  0
   21.3012   17.5998   22.6884 C   0  0  0  0  0  0  0  0  0  0  0  0
   22.2589   17.3873   22.1950 H   0  0  0  0  0  0  0  0  0  0  0  0
   21.0086   16.6640   23.1839 H   0  0  0  0  0  0  0  0  0  0  0  0
   21.5401   18.6670   23.7937 C   0  0  0  0  0  0  0  0  0  0  0  0
   22.1577   18.1912   24.5661 H   0  0  0  0  0  0  0  0  0  0  0  0
   22.1720   19.4718   23.4044 H   0  0  0  0  0  0  0  0  0  0  0  0
   20.3025   19.2751   24.5099 C   0  0  0  0  0  0  0  0  0  0  0  0
   20.6268   19.4821   25.5401 H   0  0  0  0  0  0  0  0  0  0  0  0
   19.8282   20.6437   23.9541 C   0  0  0  0  0  0  0  0  0  0  0  0
   19.0216   21.0056   24.6048 H   0  0  0  0  0  0  0  0  0  0  0  0
   20.6426   21.3693   24.0783 H   0  0  0  0  0  0  0  0  0  0  0  0
   19.3236   20.7085   22.4867 C   0  0  0  0  0  0  0  0  0  0  0  0
   18.8845   21.7051   22.3437 H   0  0  0  0  0  0  0  0  0  0  0  0
   18.4943   20.0089   22.3250 H   0  0  0  0  0  0  0  0  0  0  0  0
   20.4354   20.5350   21.4185 C   0  0  0  0  0  0  0  0  0  0  0  0
   21.4152   20.7831   21.8420 H   0  0  0  0  0  0  0  0  0  0  0  0
   20.2787   21.2881   20.6341 H   0  0  0  0  0  0  0  0  0  0  0  0
   19.2144   18.3593   24.5812 O   0  0  0  0  0  0  0  0  0  0  0  0
   18.4740   18.8364   25.0068 H   0  0  0  0  0  0  0  0  0  0  0  0
  1  2  1  0  0  0  0
  1  3  1  0  0  0  0
  1  4  1  0  0  0  0
  4  5  1  0  0  0  0
  4  6  1  0  0  0  0
  4  7  1  0  0  0  0
  7  8  1  0  0  0  0
  7  9  1  0  0  0  0
  7 10  1  0  0  0  0
 10 11  1  0  0  0  0
 10 12  1  0  0  0  0
 10 13  1  0  0  0  0
 13 14  1  0  0  0  0
 13 15  1  0  0  0  0
 15 16  1  0  0  0  0
 15 17  1  0  0  0  0
 15 18  1  0  0  0  0
 18 19  1  0  0  0  0
 18 20  1  0  0  0  0
  1 21  1  0  0  0  0
 18 21  1  0  0  0  0
 21 22  1  0  0  0  0
 21 23  1  0  0  0  0
 13 24  1  0  0  0  0
 24 25  1  0  0  0  0
M  END
> <VM2 Rank>
85

> <Conf_Id>
875

> <Probability>
0.02

> <Sum Probability>
99.83

> <Delta G>
3.276

> <G>
65.351

> <E>
32.519

> <-TS>
32.832

> <U+W>
11.952

> <U>
13.951

> <W>
-2.000

> <W(PB)>
-4.114

> <W(SA)>
2.114

> <Valence>
17.543

> <Coulomb>
-6.274

> <VdW>
2.682

> <VdW6>
-13.612

> <VdW12>
16.294

> <Bond>
0.512

> <Angle>
7.072

> <Pdih>
9.959

> <Idih>
0.000

> <Tether>
0.000

$$$$
VeraChem MOL file


 25 25  0  0  0  0  0  0  0  0999 V2000     
   20.1389   19.1372   20.7694 C   0  0  0  0  0  0  0  0  0  0  0  0
   21.0409   19.4777   20.2426 H   0  0  0  0  0  0  0  0  0  0  0  0
   19.4271   18.8639   19.9784 H   0  0  0  0  0  0  0  0  0  0  0  0
   20.4844   17.8477   21.5604 C   0  0  0  0  0  0  0  0  0  0  0  0
   19.5924   17.3911   22.0043 H   0  0  0  0  0  0  0  0  0  0  0  0
   20.8223   17.1121   20.8174 H   0  0  0  0  0  0  0  0  0  0  0  0
   21.6274   18.0014   22.5968 C   0  0  0  0  0  0  0  0  0  0  0  0
   22.3002   18.8162   22.3082 H   0  0  0  0  0  0  0  0  0  0  0  0
   22.2559   17.1027   22.5317 H   0  0  0  0  0  0  0  0  0  0  0  0
   21.2066   18.1385   24.0871 C   0  0  0  0  0  0  0  0  0  0  0  0
   20.9032   17.1457   24.4449 H   0  0  0  0  0  0  0  0  0  0  0  0
   22.1023   18.3922   24.6686 H   0  0  0  0  0  0  0  0  0  0  0  0
   20.0831   19.1301   24.4834 C   0  0  0  0  0  0  0  0  0  0  0  0
   20.0569   19.1243   25.5826 H   0  0  0  0  0  0  0  0  0  0  0  0
   20.2663   20.6148   24.0777 C   0  0  0  0  0  0  0  0  0  0  0  0
   19.3794   21.1584   24.4297 H   0  0  0  0  0  0  0  0  0  0  0  0
   21.1032   21.0234   24.6586 H   0  0  0  0  0  0  0  0  0  0  0  0
   20.4938   20.9868   22.5855 C   0  0  0  0  0  0  0  0  0  0  0  0
   21.5386   20.8220   22.3005 H   0  0  0  0  0  0  0  0  0  0  0  0
   20.3676   22.0757   22.5129 H   0  0  0  0  0  0  0  0  0  0  0  0
   19.5395   20.3362   21.5510 C   0  0  0  0  0  0  0  0  0  0  0  0
   19.3058   21.1057   20.8023 H   0  0  0  0  0  0  0  0  0  0  0  0
   18.5681   20.0886   21.9940 H   0  0  0  0  0  0  0  0  0  0  0  0
   18.8240   18.6503   24.0487 O   0  0  0  0  0  0  0  0  0  0  0  0
   18.8911   18.6721   23.0721 H   0  0  0  0  0  0  0  0  0  0  0  0
  1  2  1  0  0  0  0
  1  3  1  0  0  0  0
  1  4  1  0  0  0  0
  4  5  1  0  0  0  0
  4  6  1  0  0  0  0
  4  7  1  0  0  0  0
  7  8  1  0  0  0  0
  7  9  1  0  0  0  0
  7 10  1  0  0  0  0
 10 11  1  0  0  0  0
 10 12  1  0  0  0  0
 10 13  1  0  0  0  0
 13 14  1  0  0  0  0
 13 15  1  0  0  0  0
 15 16  1  0  0  0  0
 15 17  1  0  0  0  0
 15 18  1  0  0  0  0
 18 19  1  0  0  0  0
 18 20  1  0  0  0  0
  1 21  1  0  0  0  0
 18 21  1  0  0  0  0
 21 22  1  0  0  0  0
 21 23  1  0  0  0  0
 13 24  1  0  0  0  0
 24 25  1  0  0  0  0
M  END
> <VM2 Rank>
86

> <Conf_Id>
996

> <Probability>
0.02

> <Sum Probability>
99.85

> <Delta G>
3.344

> <G>
65.419

> <E>
32.133

> <-TS>
33.286

> <U+W>
11.566

> <U>
12.383

> <W>
-0.817

> <W(PB)>
-2.935

> <W(SA)>
2.118

> <Valence>
20.110

> <Coulomb>
-10.324

> <VdW>
2.596

> <VdW6>
-14.356

> <VdW12>
16.952

> <Bond>
0.540

> <Angle>
9.254

> <Pdih>
10.316

> <Idih>
0.000

> <Tether>
0.000

$$$$
VeraChem MOL file


 25 25  0  0  0  0  0  0  0  0999 V2000     
   19.6259   18.9477   21.1827 C   0  0  0  0  0  0  0  0  0  0  0  0
   18.8163   18.7343   21.8893 H   0  0  0  0  0  0  0  0  0  0  0  0
   19.1724   18.8255   20.1897 H   0  0  0  0  0  0  0  0  0  0  0  0
   20.7457   17.8900   21.3144 C   0  0  0  0  0  0  0  0  0  0  0  0
   20.2874   16.8926   21.3513 H   0  0  0  0  0  0  0  0  0  0  0  0
   21.3470   17.9105   20.3953 H   0  0  0  0  0  0  0  0  0  0  0  0
   21.7074   18.0531   22.5152 C   0  0  0  0  0  0  0  0  0  0  0  0
   22.2861   18.9788   22.4247 H   0  0  0  0  0  0  0  0  0  0  0  0
   22.4547   17.2520   22.4346 H   0  0  0  0  0  0  0  0  0  0  0  0
   21.0585   17.9355   23.9203 C   0  0  0  0  0  0  0  0  0  0  0  0
   20.4481   17.0239   23.9632 H   0  0  0  0  0  0  0  0  0  0  0  0
   21.8781   17.7628   24.6298 H   0  0  0  0  0  0  0  0  0  0  0  0
   20.2372   19.1324   24.4788 C   0  0  0  0  0  0  0  0  0  0  0  0
   20.4885   19.1689   25.5488 H   0  0  0  0  0  0  0  0  0  0  0  0
   20.5726   20.5468   23.9268 C   0  0  0  0  0  0  0  0  0  0  0  0
   20.3763   21.2526   24.7444 H   0  0  0  0  0  0  0  0  0  0  0  0
   21.6495   20.6374   23.7429 H   0  0  0  0  0  0  0  0  0  0  0  0
   19.7726   21.0614   22.6948 C   0  0  0  0  0  0  0  0  0  0  0  0
   19.9739   22.1372   22.6016 H   0  0  0  0  0  0  0  0  0  0  0  0
   18.6938   20.9869   22.8846 H   0  0  0  0  0  0  0  0  0  0  0  0
   20.1017   20.4140   21.3265 C   0  0  0  0  0  0  0  0  0  0  0  0
   21.1715   20.5076   21.0992 H   0  0  0  0  0  0  0  0  0  0  0  0
   19.5894   21.0064   20.5562 H   0  0  0  0  0  0  0  0  0  0  0  0
   18.8424   18.8621   24.4006 O   0  0  0  0  0  0  0  0  0  0  0  0
   18.3879   19.6788   24.6889 H   0  0  0  0  0  0  0  0  0  0  0  0
  1  2  1  0  0  0  0
  1  3  1  0  0  0  0
  1  4  1  0  0  0  0
  4  5  1  0  0  0  0
  4  6  1  0  0  0  0
  4  7  1  0  0  0  0
  7  8  1  0  0  0  0
  7  9  1  0  0  0  0
  7 10  1  0  0  0  0
 10 11  1  0  0  0  0
 10 12  1  0  0  0  0
 10 13  1  0  0  0  0
 13 14  1  0  0  0  0
 13 15  1  0  0  0  0
 15 16  1  0  0  0  0
 15 17  1  0  0  0  0
 15 18  1  0  0  0  0
 18 19  1  0  0  0  0
 18 20  1  0  0  0  0
  1 21  1  0  0  0  0
 18 21  1  0  0  0  0
 21 22  1  0  0  0  0
 21 23  1  0  0  0  0
 13 24  1  0  0  0  0
 24 25  1  0  0  0  0
M  END
> <VM2 Rank>
87

> <Conf_Id>
2007

> <Probability>
0.01

> <Sum Probability>
99.86

> <Delta G>
3.506

> <G>
65.581

> <E>
32.985

> <-TS>
32.596

> <U+W>
12.418

> <U>
14.381

> <W>
-1.963

> <W(PB)>
-4.079

> <W(SA)>
2.116

> <Valence>
18.713

> <Coulomb>
-6.942

> <VdW>
2.610

> <VdW6>
-13.510

> <VdW12>
16.120

> <Bond>
0.503

> <Angle>
7.223

> <Pdih>
10.987

> <Idih>
0.000

> <Tether>
0.000

$$$$
VeraChem MOL file


 25 25  0  0  0  0  0  0  0  0999 V2000     
   19.6108   18.8865   21.1993 C   0  0  0  0  0  0  0  0  0  0  0  0
   19.1863   18.6367   20.2176 H   0  0  0  0  0  0  0  0  0  0  0  0
   18.8996   18.4772   21.9252 H   0  0  0  0  0  0  0  0  0  0  0  0
   20.9859   18.1870   21.3303 C   0  0  0  0  0  0  0  0  0  0  0  0
   21.0284   17.3935   20.5719 H   0  0  0  0  0  0  0  0  0  0  0  0
   21.8050   18.8727   21.0777 H   0  0  0  0  0  0  0  0  0  0  0  0
   21.2343   17.5184   22.7054 C   0  0  0  0  0  0  0  0  0  0  0  0
   22.1351   16.8976   22.6064 H   0  0  0  0  0  0  0  0  0  0  0  0
   20.4217   16.8122   22.9209 H   0  0  0  0  0  0  0  0  0  0  0  0
   21.4584   18.4673   23.9186 C   0  0  0  0  0  0  0  0  0  0  0  0
   21.8324   17.8423   24.7399 H   0  0  0  0  0  0  0  0  0  0  0  0
   22.2811   19.1609   23.7090 H   0  0  0  0  0  0  0  0  0  0  0  0
   20.2315   19.2405   24.4798 C   0  0  0  0  0  0  0  0  0  0  0  0
   20.4539   19.4093   25.5435 H   0  0  0  0  0  0  0  0  0  0  0  0
   19.9574   20.6586   23.9032 C   0  0  0  0  0  0  0  0  0  0  0  0
   18.8822   20.8735   23.9614 H   0  0  0  0  0  0  0  0  0  0  0  0
   20.4277   21.3711   24.5932 H   0  0  0  0  0  0  0  0  0  0  0  0
   20.4750   21.0112   22.4829 C   0  0  0  0  0  0  0  0  0  0  0  0
   21.5368   20.7632   22.3778 H   0  0  0  0  0  0  0  0  0  0  0  0
   20.4364   22.1046   22.3854 H   0  0  0  0  0  0  0  0  0  0  0  0
   19.6584   20.4281   21.3054 C   0  0  0  0  0  0  0  0  0  0  0  0
   20.0822   20.8234   20.3723 H   0  0  0  0  0  0  0  0  0  0  0  0
   18.6300   20.8110   21.3542 H   0  0  0  0  0  0  0  0  0  0  0  0
   19.0524   18.4454   24.4350 O   0  0  0  0  0  0  0  0  0  0  0  0
   19.3129   17.5509   24.7330 H   0  0  0  0  0  0  0  0  0  0  0  0
  1  2  1  0  0  0  0
  1  3  1  0  0  0  0
  1  4  1  0  0  0  0
  4  5  1  0  0  0  0
  4  6  1  0  0  0  0
  4  7  1  0  0  0  0
  7  8  1  0  0  0  0
  7  9  1  0  0  0  0
  7 10  1  0  0  0  0
 10 11  1  0  0  0  0
 10 12  1  0  0  0  0
 10 13  1  0  0  0  0
 13 14  1  0  0  0  0
 13 15  1  0  0  0  0
 15 16  1  0  0  0  0
 15 17  1  0  0  0  0
 15 18  1  0  0  0  0
 18 19  1  0  0  0  0
 18 20  1  0  0  0  0
  1 21  1  0  0  0  0
 18 21  1  0  0  0  0
 21 22  1  0  0  0  0
 21 23  1  0  0  0  0
 13 24  1  0  0  0  0
 24 25  1  0  0  0  0
M  END
> <VM2 Rank>
88

> <Conf_Id>
1226

> <Probability>
0.01

> <Sum Probability>
99.87

> <Delta G>
3.525

> <G>
65.601

> <E>
33.004

> <-TS>
32.597

> <U+W>
12.436

> <U>
14.380

> <W>
-1.944

> <W(PB)>
-4.045

> <W(SA)>
2.101

> <Valence>
18.713

> <Coulomb>
-6.942

> <VdW>
2.610

> <VdW6>
-13.510

> <VdW12>
16.120

> <Bond>
0.503

> <Angle>
7.222

> <Pdih>
10.987

> <Idih>
0.000

> <Tether>
0.000

$$$$
VeraChem MOL file


 25 25  0  0  0  0  0  0  0  0999 V2000     
   20.7971   19.5134   20.9897 C   0  0  0  0  0  0  0  0  0  0  0  0
   20.8623   19.7194   19.9127 H   0  0  0  0  0  0  0  0  0  0  0  0
   21.6088   20.1001   21.4341 H   0  0  0  0  0  0  0  0  0  0  0  0
   21.0664   18.0043   21.2048 C   0  0  0  0  0  0  0  0  0  0  0  0
   20.5143   17.4397   20.4412 H   0  0  0  0  0  0  0  0  0  0  0  0
   22.1296   17.8111   21.0077 H   0  0  0  0  0  0  0  0  0  0  0  0
   20.6956   17.4167   22.5923 C   0  0  0  0  0  0  0  0  0  0  0  0
   21.0790   16.3876   22.6132 H   0  0  0  0  0  0  0  0  0  0  0  0
   19.6087   17.3053   22.6878 H   0  0  0  0  0  0  0  0  0  0  0  0
   21.2771   18.1608   23.8259 C   0  0  0  0  0  0  0  0  0  0  0  0
   21.4543   17.4038   24.6007 H   0  0  0  0  0  0  0  0  0  0  0  0
   22.2696   18.5634   23.5870 H   0  0  0  0  0  0  0  0  0  0  0  0
   20.4009   19.2609   24.4910 C   0  0  0  0  0  0  0  0  0  0  0  0
   20.8226   19.3925   25.4980 H   0  0  0  0  0  0  0  0  0  0  0  0
   20.4777   20.6624   23.8336 C   0  0  0  0  0  0  0  0  0  0  0  0
   20.3110   21.4044   24.6252 H   0  0  0  0  0  0  0  0  0  0  0  0
   21.5077   20.8445   23.5048 H   0  0  0  0  0  0  0  0  0  0  0  0
   19.4846   20.9930   22.6823 C   0  0  0  0  0  0  0  0  0  0  0  0
   19.7522   21.9803   22.2821 H   0  0  0  0  0  0  0  0  0  0  0  0
   18.4744   21.1072   23.0977 H   0  0  0  0  0  0  0  0  0  0  0  0
   19.4158   19.9925   21.5032 C   0  0  0  0  0  0  0  0  0  0  0  0
   18.7827   19.1420   21.7815 H   0  0  0  0  0  0  0  0  0  0  0  0
   18.8814   20.4784   20.6757 H   0  0  0  0  0  0  0  0  0  0  0  0
   19.0488   18.8391   24.6374 O   0  0  0  0  0  0  0  0  0  0  0  0
   18.5454   19.6274   24.9229 H   0  0  0  0  0  0  0  0  0  0  0  0
  1  2  1  0  0  0  0
  1  3  1  0  0  0  0
  1  4  1  0  0  0  0
  4  5  1  0  0  0  0
  4  6  1  0  0  0  0
  4  7  1  0  0  0  0
  7  8  1  0  0  0  0
  7  9  1  0  0  0  0
  7 10  1  0  0  0  0
 10 11  1  0  0  0  0
 10 12  1  0  0  0  0
 10 13  1  0  0  0  0
 13 14  1  0  0  0  0
 13 15  1  0  0  0  0
 15 16  1  0  0  0  0
 15 17  1  0  0  0  0
 15 18  1  0  0  0  0
 18 19  1  0  0  0  0
 18 20  1  0  0  0  0
  1 21  1  0  0  0  0
 18 21  1  0  0  0  0
 21 22  1  0  0  0  0
 21 23  1  0  0  0  0
 13 24  1  0  0  0  0
 24 25  1  0  0  0  0
M  END
> <VM2 Rank>
89

> <Conf_Id>
1348

> <Probability>
0.01

> <Sum Probability>
99.89

> <Delta G>
3.532

> <G>
65.607

> <E>
33.220

> <-TS>
32.387

> <U+W>
12.653

> <U>
14.604

> <W>
-1.952

> <W(PB)>
-4.077

> <W(SA)>
2.125

> <Valence>
18.883

> <Coulomb>
-7.234

> <VdW>
2.956

> <VdW6>
-13.441

> <VdW12>
16.397

> <Bond>
0.515

> <Angle>
6.286

> <Pdih>
12.082

> <Idih>
0.000

> <Tether>
0.000

$$$$
VeraChem MOL file


 25 25  0  0  0  0  0  0  0  0999 V2000     
   20.1296   19.1320   20.6779 C   0  0  0  0  0  0  0  0  0  0  0  0
   20.8194   19.0418   19.8277 H   0  0  0  0  0  0  0  0  0  0  0  0
   19.1205   19.0647   20.2490 H   0  0  0  0  0  0  0  0  0  0  0  0
   20.3430   17.9163   21.6120 C   0  0  0  0  0  0  0  0  0  0  0  0
   19.4331   17.7234   22.1875 H   0  0  0  0  0  0  0  0  0  0  0  0
   20.4594   17.0248   20.9806 H   0  0  0  0  0  0  0  0  0  0  0  0
   21.5772   18.0248   22.5407 C   0  0  0  0  0  0  0  0  0  0  0  0
   22.2045   18.8825   22.2728 H   0  0  0  0  0  0  0  0  0  0  0  0
   22.2171   17.1494   22.3650 H   0  0  0  0  0  0  0  0  0  0  0  0
   21.2448   18.0684   24.0546 C   0  0  0  0  0  0  0  0  0  0  0  0
   20.8826   17.0797   24.3668 H   0  0  0  0  0  0  0  0  0  0  0  0
   22.1896   18.2134   24.5943 H   0  0  0  0  0  0  0  0  0  0  0  0
   20.2428   19.1394   24.5634 C   0  0  0  0  0  0  0  0  0  0  0  0
   20.4761   19.2691   25.6301 H   0  0  0  0  0  0  0  0  0  0  0  0
   20.3442   20.5481   23.9220 C   0  0  0  0  0  0  0  0  0  0  0  0
   19.9609   21.2500   24.6743 H   0  0  0  0  0  0  0  0  0  0  0  0
   21.3995   20.8211   23.7943 H   0  0  0  0  0  0  0  0  0  0  0  0
   19.5492   20.8210   22.6075 C   0  0  0  0  0  0  0  0  0  0  0  0
   19.3175   21.8950   22.6065 H   0  0  0  0  0  0  0  0  0  0  0  0
   18.5700   20.3268   22.5982 H   0  0  0  0  0  0  0  0  0  0  0  0
   20.3214   20.5416   21.2954 C   0  0  0  0  0  0  0  0  0  0  0  0
   21.3875   20.7626   21.4323 H   0  0  0  0  0  0  0  0  0  0  0  0
   19.9817   21.2673   20.5437 H   0  0  0  0  0  0  0  0  0  0  0  0
   18.9117   18.6514   24.4864 O   0  0  0  0  0  0  0  0  0  0  0  0
   18.6992   18.6528   23.5325 H   0  0  0  0  0  0  0  0  0  0  0  0
  1  2  1  0  0  0  0
  1  3  1  0  0  0  0
  1  4  1  0  0  0  0
  4  5  1  0  0  0  0
  4  6  1  0  0  0  0
  4  7  1  0  0  0  0
  7  8  1  0  0  0  0
  7  9  1  0  0  0  0
  7 10  1  0  0  0  0
 10 11  1  0  0  0  0
 10 12  1  0  0  0  0
 10 13  1  0  0  0  0
 13 14  1  0  0  0  0
 13 15  1  0  0  0  0
 15 16  1  0  0  0  0
 15 17  1  0  0  0  0
 15 18  1  0  0  0  0
 18 19  1  0  0  0  0
 18 20  1  0  0  0  0
  1 21  1  0  0  0  0
 18 21  1  0  0  0  0
 21 22  1  0  0  0  0
 21 23  1  0  0  0  0
 13 24  1  0  0  0  0
 24 25  1  0  0  0  0
M  END
> <VM2 Rank>
90

> <Conf_Id>
1191

> <Probability>
0.01

> <Sum Probability>
99.90

> <Delta G>
3.596

> <G>
65.672

> <E>
33.221

> <-TS>
32.451

> <U+W>
12.653

> <U>
13.786

> <W>
-1.133

> <W(PB)>
-3.259

> <W(SA)>
2.127

> <Valence>
20.491

> <Coulomb>
-9.471

> <VdW>
2.766

> <VdW6>
-13.485

> <VdW12>
16.252

> <Bond>
0.508

> <Angle>
6.903

> <Pdih>
13.080

> <Idih>
0.000

> <Tether>
0.000

$$$$
VeraChem MOL file


 25 25  0  0  0  0  0  0  0  0999 V2000     
   20.0732   19.0849   20.6850 C   0  0  0  0  0  0  0  0  0  0  0  0
   20.4717   19.6189   19.8115 H   0  0  0  0  0  0  0  0  0  0  0  0
   19.3069   18.4034   20.2911 H   0  0  0  0  0  0  0  0  0  0  0  0
   21.2272   18.2470   21.2943 C   0  0  0  0  0  0  0  0  0  0  0  0
   21.4873   17.4777   20.5542 H   0  0  0  0  0  0  0  0  0  0  0  0
   22.1358   18.8542   21.3942 H   0  0  0  0  0  0  0  0  0  0  0  0
   20.9172   17.5327   22.6321 C   0  0  0  0  0  0  0  0  0  0  0  0
   21.5196   16.6139   22.6382 H   0  0  0  0  0  0  0  0  0  0  0  0
   19.8780   17.1823   22.6571 H   0  0  0  0  0  0  0  0  0  0  0  0
   21.3131   18.3218   23.9186 C   0  0  0  0  0  0  0  0  0  0  0  0
   21.5630   17.5744   24.6831 H   0  0  0  0  0  0  0  0  0  0  0  0
   22.2445   18.8784   23.7543 H   0  0  0  0  0  0  0  0  0  0  0  0
   20.2544   19.2537   24.5643 C   0  0  0  0  0  0  0  0  0  0  0  0
   20.5370   19.3544   25.6222 H   0  0  0  0  0  0  0  0  0  0  0  0
   20.1815   20.7065   24.0220 C   0  0  0  0  0  0  0  0  0  0  0  0
   19.2310   21.1499   24.3474 H   0  0  0  0  0  0  0  0  0  0  0  0
   20.9608   21.2904   24.5287 H   0  0  0  0  0  0  0  0  0  0  0  0
   20.3461   20.9373   22.4976 C   0  0  0  0  0  0  0  0  0  0  0  0
   21.3903   20.7755   22.2075 H   0  0  0  0  0  0  0  0  0  0  0  0
   20.1668   22.0030   22.3006 H   0  0  0  0  0  0  0  0  0  0  0  0
   19.3801   20.1124   21.6122 C   0  0  0  0  0  0  0  0  0  0  0  0
   18.6188   19.6137   22.2190 H   0  0  0  0  0  0  0  0  0  0  0  0
   18.8108   20.8057   20.9779 H   0  0  0  0  0  0  0  0  0  0  0  0
   18.9713   18.6467   24.5338 O   0  0  0  0  0  0  0  0  0  0  0  0
   18.7994   18.4713   23.5879 H   0  0  0  0  0  0  0  0  0  0  0  0
  1  2  1  0  0  0  0
  1  3  1  0  0  0  0
  1  4  1  0  0  0  0
  4  5  1  0  0  0  0
  4  6  1  0  0  0  0
  4  7  1  0  0  0  0
  7  8  1  0  0  0  0
  7  9  1  0  0  0  0
  7 10  1  0  0  0  0
 10 11  1  0  0  0  0
 10 12  1  0  0  0  0
 10 13  1  0  0  0  0
 13 14  1  0  0  0  0
 13 15  1  0  0  0  0
 15 16  1  0  0  0  0
 15 17  1  0  0  0  0
 15 18  1  0  0  0  0
 18 19  1  0  0  0  0
 18 20  1  0  0  0  0
  1 21  1  0  0  0  0
 18 21  1  0  0  0  0
 21 22  1  0  0  0  0
 21 23  1  0  0  0  0
 13 24  1  0  0  0  0
 24 25  1  0  0  0  0
M  END
> <VM2 Rank>
91

> <Conf_Id>
1662

> <Probability>
0.01

> <Sum Probability>
99.91

> <Delta G>
3.597

> <G>
65.672

> <E>
33.221

> <-TS>
32.451

> <U+W>
12.653

> <U>
13.786

> <W>
-1.133

> <W(PB)>
-3.267

> <W(SA)>
2.134

> <Valence>
20.490

> <Coulomb>
-9.471

> <VdW>
2.766

> <VdW6>
-13.486

> <VdW12>
16.252

> <Bond>
0.508

> <Angle>
6.902

> <Pdih>
13.080

> <Idih>
0.000

> <Tether>
0.000

$$$$
VeraChem MOL file


 25 25  0  0  0  0  0  0  0  0999 V2000     
   20.8966   19.3604   20.9993 C   0  0  0  0  0  0  0  0  0  0  0  0
   21.1179   19.2677   19.9274 H   0  0  0  0  0  0  0  0  0  0  0  0
   21.8658   19.5672   21.4667 H   0  0  0  0  0  0  0  0  0  0  0  0
   20.3091   18.0179   21.5025 C   0  0  0  0  0  0  0  0  0  0  0  0
   19.2474   18.1226   21.7538 H   0  0  0  0  0  0  0  0  0  0  0  0
   20.3292   17.2930   20.6776 H   0  0  0  0  0  0  0  0  0  0  0  0
   21.0621   17.3968   22.7042 C   0  0  0  0  0  0  0  0  0  0  0  0
   21.9722   16.9097   22.3289 H   0  0  0  0  0  0  0  0  0  0  0  0
   20.4423   16.5898   23.1182 H   0  0  0  0  0  0  0  0  0  0  0  0
   21.4758   18.3543   23.8587 C   0  0  0  0  0  0  0  0  0  0  0  0
   21.8834   17.7273   24.6621 H   0  0  0  0  0  0  0  0  0  0  0  0
   22.3191   18.9809   23.5455 H   0  0  0  0  0  0  0  0  0  0  0  0
   20.3847   19.2540   24.4935 C   0  0  0  0  0  0  0  0  0  0  0  0
   20.7561   19.4878   25.5018 H   0  0  0  0  0  0  0  0  0  0  0  0
   20.1768   20.6359   23.8101 C   0  0  0  0  0  0  0  0  0  0  0  0
   19.7398   21.2949   24.5715 H   0  0  0  0  0  0  0  0  0  0  0  0
   21.1496   21.0852   23.5726 H   0  0  0  0  0  0  0  0  0  0  0  0
   19.2488   20.6995   22.5659 C   0  0  0  0  0  0  0  0  0  0  0  0
   18.4355   19.9688   22.6491 H   0  0  0  0  0  0  0  0  0  0  0  0
   18.7440   21.6751   22.5751 H   0  0  0  0  0  0  0  0  0  0  0  0
   19.9551   20.5742   21.1902 C   0  0  0  0  0  0  0  0  0  0  0  0
   19.1790   20.5394   20.4135 H   0  0  0  0  0  0  0  0  0  0  0  0
   20.5287   21.4910   20.9978 H   0  0  0  0  0  0  0  0  0  0  0  0
   19.1549   18.5501   24.6357 O   0  0  0  0  0  0  0  0  0  0  0  0
   18.5050   19.1952   24.9797 H   0  0  0  0  0  0  0  0  0  0  0  0
  1  2  1  0  0  0  0
  1  3  1  0  0  0  0
  1  4  1  0  0  0  0
  4  5  1  0  0  0  0
  4  6  1  0  0  0  0
  4  7  1  0  0  0  0
  7  8  1  0  0  0  0
  7  9  1  0  0  0  0
  7 10  1  0  0  0  0
 10 11  1  0  0  0  0
 10 12  1  0  0  0  0
 10 13  1  0  0  0  0
 13 14  1  0  0  0  0
 13 15  1  0  0  0  0
 15 16  1  0  0  0  0
 15 17  1  0  0  0  0
 15 18  1  0  0  0  0
 18 19  1  0  0  0  0
 18 20  1  0  0  0  0
  1 21  1  0  0  0  0
 18 21  1  0  0  0  0
 21 22  1  0  0  0  0
 21 23  1  0  0  0  0
 13 24  1  0  0  0  0
 24 25  1  0  0  0  0
M  END
> <VM2 Rank>
92

> <Conf_Id>
1021

> <Probability>
0.01

> <Sum Probability>
99.92

> <Delta G>
3.875

> <G>
65.950

> <E>
33.502

> <-TS>
32.448

> <U+W>
12.934

> <U>
14.863

> <W>
-1.929

> <W(PB)>
-4.063

> <W(SA)>
2.134

> <Valence>
18.821

> <Coulomb>
-6.904

> <VdW>
2.946

> <VdW6>
-13.395

> <VdW12>
16.340

> <Bond>
0.514

> <Angle>
6.249

> <Pdih>
12.058

> <Idih>
0.000

> <Tether>
0.000

$$$$
VeraChem MOL file


 25 25  0  0  0  0  0  0  0  0999 V2000     
   20.5437   19.2027   20.8848 C   0  0  0  0  0  0  0  0  0  0  0  0
   20.2900   19.0846   19.8222 H   0  0  0  0  0  0  0  0  0  0  0  0
   21.5783   19.5709   20.8951 H   0  0  0  0  0  0  0  0  0  0  0  0
   20.4560   17.7966   21.5230 C   0  0  0  0  0  0  0  0  0  0  0  0
   19.4110   17.5482   21.7431 H   0  0  0  0  0  0  0  0  0  0  0  0
   20.7486   17.0646   20.7574 H   0  0  0  0  0  0  0  0  0  0  0  0
   21.3674   17.5396   22.7540 C   0  0  0  0  0  0  0  0  0  0  0  0
   22.3799   17.3239   22.3864 H   0  0  0  0  0  0  0  0  0  0  0  0
   21.0329   16.6145   23.2436 H   0  0  0  0  0  0  0  0  0  0  0  0
   21.4939   18.6583   23.8272 C   0  0  0  0  0  0  0  0  0  0  0  0
   22.0966   18.2489   24.6481 H   0  0  0  0  0  0  0  0  0  0  0  0
   22.1057   19.4758   23.4313 H   0  0  0  0  0  0  0  0  0  0  0  0
   20.1864   19.2135   24.4558 C   0  0  0  0  0  0  0  0  0  0  0  0
   20.3338   19.2262   25.5454 H   0  0  0  0  0  0  0  0  0  0  0  0
   19.8368   20.6685   24.0542 C   0  0  0  0  0  0  0  0  0  0  0  0
   18.7732   20.8428   24.2655 H   0  0  0  0  0  0  0  0  0  0  0  0
   20.3781   21.3396   24.7337 H   0  0  0  0  0  0  0  0  0  0  0  0
   20.1435   21.1315   22.6035 C   0  0  0  0  0  0  0  0  0  0  0  0
   19.7200   22.1397   22.4977 H   0  0  0  0  0  0  0  0  0  0  0  0
   21.2228   21.2694   22.4609 H   0  0  0  0  0  0  0  0  0  0  0  0
   19.5626   20.2564   21.4665 C   0  0  0  0  0  0  0  0  0  0  0  0
   19.3082   20.9380   20.6430 H   0  0  0  0  0  0  0  0  0  0  0  0
   18.6092   19.8011   21.7649 H   0  0  0  0  0  0  0  0  0  0  0  0
   19.0737   18.3759   24.1910 O   0  0  0  0  0  0  0  0  0  0  0  0
   19.0458   18.3274   23.2158 H   0  0  0  0  0  0  0  0  0  0  0  0
  1  2  1  0  0  0  0
  1  3  1  0  0  0  0
  1  4  1  0  0  0  0
  4  5  1  0  0  0  0
  4  6  1  0  0  0  0
  4  7  1  0  0  0  0
  7  8  1  0  0  0  0
  7  9  1  0  0  0  0
  7 10  1  0  0  0  0
 10 11  1  0  0  0  0
 10 12  1  0  0  0  0
 10 13  1  0  0  0  0
 13 14  1  0  0  0  0
 13 15  1  0  0  0  0
 15 16  1  0  0  0  0
 15 17  1  0  0  0  0
 15 18  1  0  0  0  0
 18 19  1  0  0  0  0
 18 20  1  0  0  0  0
  1 21  1  0  0  0  0
 18 21  1  0  0  0  0
 21 22  1  0  0  0  0
 21 23  1  0  0  0  0
 13 24  1  0  0  0  0
 24 25  1  0  0  0  0
M  END
> <VM2 Rank>
93

> <Conf_Id>
1304

> <Probability>
0.01

> <Sum Probability>
99.92

> <Delta G>
3.933

> <G>
66.008

> <E>
33.364

> <-TS>
32.644

> <U+W>
12.797

> <U>
13.787

> <W>
-0.990

> <W(PB)>
-3.084

> <W(SA)>
2.095

> <Valence>
20.983

> <Coulomb>
-10.046

> <VdW>
2.849

> <VdW6>
-14.096

> <VdW12>
16.945

> <Bond>
0.518

> <Angle>
7.297

> <Pdih>
13.168

> <Idih>
0.000

> <Tether>
0.000

$$$$
VeraChem MOL file


 25 25  0  0  0  0  0  0  0  0999 V2000     
   20.5123   19.3719   20.8882 C   0  0  0  0  0  0  0  0  0  0  0  0
   21.5025   19.8460   20.9176 H   0  0  0  0  0  0  0  0  0  0  0  0
   20.2728   19.2699   19.8206 H   0  0  0  0  0  0  0  0  0  0  0  0
   20.5548   17.9362   21.4782 C   0  0  0  0  0  0  0  0  0  0  0  0
   19.5534   17.5827   21.7565 H   0  0  0  0  0  0  0  0  0  0  0  0
   20.8766   17.2711   20.6648 H   0  0  0  0  0  0  0  0  0  0  0  0
   21.5599   17.7368   22.6384 C   0  0  0  0  0  0  0  0  0  0  0  0
   22.4217   18.4042   22.5112 H   0  0  0  0  0  0  0  0  0  0  0  0
   21.9783   16.7251   22.5468 H   0  0  0  0  0  0  0  0  0  0  0  0
   20.9838   17.8531   24.0763 C   0  0  0  0  0  0  0  0  0  0  0  0
   20.3529   16.9770   24.2782 H   0  0  0  0  0  0  0  0  0  0  0  0
   21.8263   17.7671   24.7747 H   0  0  0  0  0  0  0  0  0  0  0  0
   20.1902   19.1290   24.4543 C   0  0  0  0  0  0  0  0  0  0  0  0
   20.2794   19.2299   25.5456 H   0  0  0  0  0  0  0  0  0  0  0  0
   20.7321   20.4443   23.8308 C   0  0  0  0  0  0  0  0  0  0  0  0
   20.8490   21.1646   24.6508 H   0  0  0  0  0  0  0  0  0  0  0  0
   21.7516   20.2998   23.4577 H   0  0  0  0  0  0  0  0  0  0  0  0
   19.8734   21.1380   22.7350 C   0  0  0  0  0  0  0  0  0  0  0  0
   20.4423   22.0062   22.3753 H   0  0  0  0  0  0  0  0  0  0  0  0
   18.9712   21.5557   23.2030 H   0  0  0  0  0  0  0  0  0  0  0  0
   19.4398   20.3044   21.4984 C   0  0  0  0  0  0  0  0  0  0  0  0
   19.1439   21.0241   20.7226 H   0  0  0  0  0  0  0  0  0  0  0  0
   18.5222   19.7396   21.7015 H   0  0  0  0  0  0  0  0  0  0  0  0
   18.8177   18.9292   24.1606 O   0  0  0  0  0  0  0  0  0  0  0  0
   18.7849   18.9386   23.1843 H   0  0  0  0  0  0  0  0  0  0  0  0
  1  2  1  0  0  0  0
  1  3  1  0  0  0  0
  1  4  1  0  0  0  0
  4  5  1  0  0  0  0
  4  6  1  0  0  0  0
  4  7  1  0  0  0  0
  7  8  1  0  0  0  0
  7  9  1  0  0  0  0
  7 10  1  0  0  0  0
 10 11  1  0  0  0  0
 10 12  1  0  0  0  0
 10 13  1  0  0  0  0
 13 14  1  0  0  0  0
 13 15  1  0  0  0  0
 15 16  1  0  0  0  0
 15 17  1  0  0  0  0
 15 18  1  0  0  0  0
 18 19  1  0  0  0  0
 18 20  1  0  0  0  0
  1 21  1  0  0  0  0
 18 21  1  0  0  0  0
 21 22  1  0  0  0  0
 21 23  1  0  0  0  0
 13 24  1  0  0  0  0
 24 25  1  0  0  0  0
M  END
> <VM2 Rank>
94

> <Conf_Id>
779

> <Probability>
0.01

> <Sum Probability>
99.93

> <Delta G>
3.963

> <G>
66.038

> <E>
33.394

> <-TS>
32.644

> <U+W>
12.827

> <U>
13.787

> <W>
-0.960

> <W(PB)>
-3.077

> <W(SA)>
2.117

> <Valence>
20.983

> <Coulomb>
-10.046

> <VdW>
2.849

> <VdW6>
-14.095

> <VdW12>
16.945

> <Bond>
0.518

> <Angle>
7.297

> <Pdih>
13.167

> <Idih>
0.000

> <Tether>
0.000

$$$$
VeraChem MOL file


 25 25  0  0  0  0  0  0  0  0999 V2000     
   20.0869   19.0981   20.7582 C   0  0  0  0  0  0  0  0  0  0  0  0
   20.3299   19.6680   19.8511 H   0  0  0  0  0  0  0  0  0  0  0  0
   19.4632   18.2602   20.4187 H   0  0  0  0  0  0  0  0  0  0  0  0
   21.4242   18.5440   21.3151 C   0  0  0  0  0  0  0  0  0  0  0  0
   21.9281   18.0130   20.4960 H   0  0  0  0  0  0  0  0  0  0  0  0
   22.0996   19.3776   21.5310 H   0  0  0  0  0  0  0  0  0  0  0  0
   21.3515   17.5601   22.5190 C   0  0  0  0  0  0  0  0  0  0  0  0
   22.3378   17.5169   23.0006 H   0  0  0  0  0  0  0  0  0  0  0  0
   21.1810   16.5545   22.1111 H   0  0  0  0  0  0  0  0  0  0  0  0
   20.2644   17.7993   23.6020 C   0  0  0  0  0  0  0  0  0  0  0  0
   19.2739   17.7003   23.1484 H   0  0  0  0  0  0  0  0  0  0  0  0
   20.3128   16.9559   24.3030 H   0  0  0  0  0  0  0  0  0  0  0  0
   20.3660   19.0907   24.4609 C   0  0  0  0  0  0  0  0  0  0  0  0
   21.0857   18.8781   25.2644 H   0  0  0  0  0  0  0  0  0  0  0  0
   20.8564   20.3856   23.7665 C   0  0  0  0  0  0  0  0  0  0  0  0
   20.9559   21.1553   24.5432 H   0  0  0  0  0  0  0  0  0  0  0  0
   21.8858   20.2356   23.4296 H   0  0  0  0  0  0  0  0  0  0  0  0
   19.9853   20.9918   22.6230 C   0  0  0  0  0  0  0  0  0  0  0  0
   20.6123   21.6649   22.0229 H   0  0  0  0  0  0  0  0  0  0  0  0
   19.2302   21.6389   23.0898 H   0  0  0  0  0  0  0  0  0  0  0  0
   19.2320   20.0222   21.6731 C   0  0  0  0  0  0  0  0  0  0  0  0
   18.5067   19.4346   22.2432 H   0  0  0  0  0  0  0  0  0  0  0  0
   18.6014   20.6326   21.0122 H   0  0  0  0  0  0  0  0  0  0  0  0
   19.0972   19.3511   25.0422 O   0  0  0  0  0  0  0  0  0  0  0  0
   18.5576   19.7318   24.3203 H   0  0  0  0  0  0  0  0  0  0  0  0
  1  2  1  0  0  0  0
  1  3  1  0  0  0  0
  1  4  1  0  0  0  0
  4  5  1  0  0  0  0
  4  6  1  0  0  0  0
  4  7  1  0  0  0  0
  7  8  1  0  0  0  0
  7  9  1  0  0  0  0
  7 10  1  0  0  0  0
 10 11  1  0  0  0  0
 10 12  1  0  0  0  0
 10 13  1  0  0  0  0
 13 14  1  0  0  0  0
 13 15  1  0  0  0  0
 15 16  1  0  0  0  0
 15 17  1  0  0  0  0
 15 18  1  0  0  0  0
 18 19  1  0  0  0  0
 18 20  1  0  0  0  0
  1 21  1  0  0  0  0
 18 21  1  0  0  0  0
 21 22  1  0  0  0  0
 21 23  1  0  0  0  0
 13 24  1  0  0  0  0
 24 25  1  0  0  0  0
M  END
> <VM2 Rank>
95

> <Conf_Id>
1666

> <Probability>
0.01

> <Sum Probability>
99.93

> <Delta G>
4.003

> <G>
66.079

> <E>
33.265

> <-TS>
32.814

> <U+W>
12.697

> <U>
14.050

> <W>
-1.353

> <W(PB)>
-3.459

> <W(SA)>
2.106

> <Valence>
19.391

> <Coulomb>
-9.106

> <VdW>
3.764

> <VdW6>
-14.145

> <VdW12>
17.909

> <Bond>
0.723

> <Angle>
9.668

> <Pdih>
9.001

> <Idih>
0.000

> <Tether>
0.000

$$$$
VeraChem MOL file


 25 25  0  0  0  0  0  0  0  0999 V2000     
   20.1100   19.1097   20.7555 C   0  0  0  0  0  0  0  0  0  0  0  0
   20.7070   18.8910   19.8596 H   0  0  0  0  0  0  0  0  0  0  0  0
   19.0778   19.2246   20.3981 H   0  0  0  0  0  0  0  0  0  0  0  0
   20.1851   17.8607   21.6809 C   0  0  0  0  0  0  0  0  0  0  0  0
   19.2511   17.7371   22.2366 H   0  0  0  0  0  0  0  0  0  0  0  0
   20.2105   16.9785   21.0268 H   0  0  0  0  0  0  0  0  0  0  0  0
   21.3918   17.7549   22.6517 C   0  0  0  0  0  0  0  0  0  0  0  0
   22.3215   17.7483   22.0669 H   0  0  0  0  0  0  0  0  0  0  0  0
   21.3403   16.7648   23.1249 H   0  0  0  0  0  0  0  0  0  0  0  0
   21.5258   18.8134   23.7898 C   0  0  0  0  0  0  0  0  0  0  0  0
   22.1427   18.3657   24.5802 H   0  0  0  0  0  0  0  0  0  0  0  0
   22.1254   19.6650   23.4566 H   0  0  0  0  0  0  0  0  0  0  0  0
   20.2342   19.3455   24.4591 C   0  0  0  0  0  0  0  0  0  0  0  0
   20.5575   20.0220   25.2632 H   0  0  0  0  0  0  0  0  0  0  0  0
   19.2364   20.1477   23.5777 C   0  0  0  0  0  0  0  0  0  0  0  0
   18.4947   19.4890   23.1166 H   0  0  0  0  0  0  0  0  0  0  0  0
   18.6424   20.7646   24.2644 H   0  0  0  0  0  0  0  0  0  0  0  0
   19.8229   21.0968   22.4973 C   0  0  0  0  0  0  0  0  0  0  0  0
   20.4574   21.8498   22.9839 H   0  0  0  0  0  0  0  0  0  0  0  0
   18.9792   21.6567   22.0713 H   0  0  0  0  0  0  0  0  0  0  0  0
   20.6105   20.4686   21.3108 C   0  0  0  0  0  0  0  0  0  0  0  0
   21.6768   20.3935   21.5449 H   0  0  0  0  0  0  0  0  0  0  0  0
   20.5808   21.1934   20.4858 H   0  0  0  0  0  0  0  0  0  0  0  0
   19.5474   18.2456   25.0372 O   0  0  0  0  0  0  0  0  0  0  0  0
   19.4684   17.5862   24.3187 H   0  0  0  0  0  0  0  0  0  0  0  0
  1  2  1  0  0  0  0
  1  3  1  0  0  0  0
  1  4  1  0  0  0  0
  4  5  1  0  0  0  0
  4  6  1  0  0  0  0
  4  7  1  0  0  0  0
  7  8  1  0  0  0  0
  7  9  1  0  0  0  0
  7 10  1  0  0  0  0
 10 11  1  0  0  0  0
 10 12  1  0  0  0  0
 10 13  1  0  0  0  0
 13 14  1  0  0  0  0
 13 15  1  0  0  0  0
 15 16  1  0  0  0  0
 15 17  1  0  0  0  0
 15 18  1  0  0  0  0
 18 19  1  0  0  0  0
 18 20  1  0  0  0  0
  1 21  1  0  0  0  0
 18 21  1  0  0  0  0
 21 22  1  0  0  0  0
 21 23  1  0  0  0  0
 13 24  1  0  0  0  0
 24 25  1  0  0  0  0
M  END
> <VM2 Rank>
96

> <Conf_Id>
784

> <Probability>
0.01

> <Sum Probability>
99.94

> <Delta G>
4.045

> <G>
66.120

> <E>
33.306

> <-TS>
32.814

> <U+W>
12.738

> <U>
14.050

> <W>
-1.312

> <W(PB)>
-3.425

> <W(SA)>
2.113

> <Valence>
19.391

> <Coulomb>
-9.106

> <VdW>
3.765

> <VdW6>
-14.145

> <VdW12>
17.910

> <Bond>
0.723

> <Angle>
9.667

> <Pdih>
9.002

> <Idih>
0.000

> <Tether>
0.000

$$$$
VeraChem MOL file


 25 25  0  0  0  0  0  0  0  0999 V2000     
   19.6255   18.9485   21.1810 C   0  0  0  0  0  0  0  0  0  0  0  0
   18.8128   18.7394   21.8853 H   0  0  0  0  0  0  0  0  0  0  0  0
   19.1748   18.8265   20.1868 H   0  0  0  0  0  0  0  0  0  0  0  0
   20.7421   17.8880   21.3175 C   0  0  0  0  0  0  0  0  0  0  0  0
   20.2815   16.8917   21.3599 H   0  0  0  0  0  0  0  0  0  0  0  0
   21.3419   17.9023   20.3973 H   0  0  0  0  0  0  0  0  0  0  0  0
   21.7070   18.0559   22.5150 C   0  0  0  0  0  0  0  0  0  0  0  0
   22.2825   18.9833   22.4213 H   0  0  0  0  0  0  0  0  0  0  0  0
   22.4567   17.2572   22.4331 H   0  0  0  0  0  0  0  0  0  0  0  0
   21.0640   17.9390   23.9224 C   0  0  0  0  0  0  0  0  0  0  0  0
   20.4684   17.0182   23.9712 H   0  0  0  0  0  0  0  0  0  0  0  0
   21.8897   17.7801   24.6282 H   0  0  0  0  0  0  0  0  0  0  0  0
   20.2352   19.1324   24.4785 C   0  0  0  0  0  0  0  0  0  0  0  0
   20.4836   19.1698   25.5492 H   0  0  0  0  0  0  0  0  0  0  0  0
   20.5719   20.5474   23.9281 C   0  0  0  0  0  0  0  0  0  0  0  0
   20.3649   21.2501   24.7455 H   0  0  0  0  0  0  0  0  0  0  0  0
   21.6494   20.6419   23.7506 H   0  0  0  0  0  0  0  0  0  0  0  0
   19.7742   21.0602   22.6943 C   0  0  0  0  0  0  0  0  0  0  0  0
   18.6962   20.9786   22.8885 H   0  0  0  0  0  0  0  0  0  0  0  0
   19.9699   22.1371   22.6027 H   0  0  0  0  0  0  0  0  0  0  0  0
   20.1038   20.4140   21.3253 C   0  0  0  0  0  0  0  0  0  0  0  0
   21.1735   20.5071   21.0979 H   0  0  0  0  0  0  0  0  0  0  0  0
   19.5915   21.0074   20.5558 H   0  0  0  0  0  0  0  0  0  0  0  0
   18.8404   18.8577   24.3979 O   0  0  0  0  0  0  0  0  0  0  0  0
   18.7038   17.9726   24.7916 H   0  0  0  0  0  0  0  0  0  0  0  0
  1  2  1  0  0  0  0
  1  3  1  0  0  0  0
  1  4  1  0  0  0  0
  4  5  1  0  0  0  0
  4  6  1  0  0  0  0
  4  7  1  0  0  0  0
  7  8  1  0  0  0  0
  7  9  1  0  0  0  0
  7 10  1  0  0  0  0
 10 11  1  0  0  0  0
 10 12  1  0  0  0  0
 10 13  1  0  0  0  0
 13 14  1  0  0  0  0
 13 15  1  0  0  0  0
 15 16  1  0  0  0  0
 15 17  1  0  0  0  0
 15 18  1  0  0  0  0
 18 19  1  0  0  0  0
 18 20  1  0  0  0  0
  1 21  1  0  0  0  0
 18 21  1  0  0  0  0
 21 22  1  0  0  0  0
 21 23  1  0  0  0  0
 13 24  1  0  0  0  0
 24 25  1  0  0  0  0
M  END
> <VM2 Rank>
97

> <Conf_Id>
1942

> <Probability>
0.00

> <Sum Probability>
99.94

> <Delta G>
4.107

> <G>
66.183

> <E>
33.559

> <-TS>
32.624

> <U+W>
12.991

> <U>
14.959

> <W>
-1.967

> <W(PB)>
-4.075

> <W(SA)>
2.108

> <Valence>
18.591

> <Coulomb>
-6.260

> <VdW>
2.627

> <VdW6>
-13.467

> <VdW12>
16.095

> <Bond>
0.508

> <Angle>
7.247

> <Pdih>
10.837

> <Idih>
0.000

> <Tether>
0.000

$$$$
VeraChem MOL file


 25 25  0  0  0  0  0  0  0  0999 V2000     
   19.6108   18.8856   21.1978 C   0  0  0  0  0  0  0  0  0  0  0  0
   18.9005   18.4711   21.9215 H   0  0  0  0  0  0  0  0  0  0  0  0
   19.1882   18.6376   20.2147 H   0  0  0  0  0  0  0  0  0  0  0  0
   20.9870   18.1883   21.3291 C   0  0  0  0  0  0  0  0  0  0  0  0
   21.0300   17.3940   20.5714 H   0  0  0  0  0  0  0  0  0  0  0  0
   21.8058   18.8741   21.0761 H   0  0  0  0  0  0  0  0  0  0  0  0
   21.2343   17.5201   22.7049 C   0  0  0  0  0  0  0  0  0  0  0  0
   22.1318   16.8946   22.6075 H   0  0  0  0  0  0  0  0  0  0  0  0
   20.4172   16.8199   22.9249 H   0  0  0  0  0  0  0  0  0  0  0  0
   21.4584   18.4664   23.9199 C   0  0  0  0  0  0  0  0  0  0  0  0
   21.8226   17.8360   24.7412 H   0  0  0  0  0  0  0  0  0  0  0  0
   22.2845   19.1575   23.7165 H   0  0  0  0  0  0  0  0  0  0  0  0
   20.2303   19.2392   24.4796 C   0  0  0  0  0  0  0  0  0  0  0  0
   20.4514   19.4055   25.5440 H   0  0  0  0  0  0  0  0  0  0  0  0
   19.9641   20.6602   23.9050 C   0  0  0  0  0  0  0  0  0  0  0  0
   18.8931   20.8922   23.9690 H   0  0  0  0  0  0  0  0  0  0  0  0
   20.4486   21.3672   24.5911 H   0  0  0  0  0  0  0  0  0  0  0  0
   20.4768   21.0088   22.4825 C   0  0  0  0  0  0  0  0  0  0  0  0
   21.5376   20.7572   22.3742 H   0  0  0  0  0  0  0  0  0  0  0  0
   20.4418   22.1023   22.3837 H   0  0  0  0  0  0  0  0  0  0  0  0
   19.6543   20.4270   21.3086 C   0  0  0  0  0  0  0  0  0  0  0  0
   20.0727   20.8256   20.3744 H   0  0  0  0  0  0  0  0  0  0  0  0
   18.6255   20.8077   21.3631 H   0  0  0  0  0  0  0  0  0  0  0  0
   19.0479   18.4474   24.4326 O   0  0  0  0  0  0  0  0  0  0  0  0
   18.3331   18.9837   24.8306 H   0  0  0  0  0  0  0  0  0  0  0  0
  1  2  1  0  0  0  0
  1  3  1  0  0  0  0
  1  4  1  0  0  0  0
  4  5  1  0  0  0  0
  4  6  1  0  0  0  0
  4  7  1  0  0  0  0
  7  8  1  0  0  0  0
  7  9  1  0  0  0  0
  7 10  1  0  0  0  0
 10 11  1  0  0  0  0
 10 12  1  0  0  0  0
 10 13  1  0  0  0  0
 13 14  1  0  0  0  0
 13 15  1  0  0  0  0
 15 16  1  0  0  0  0
 15 17  1  0  0  0  0
 15 18  1  0  0  0  0
 18 19  1  0  0  0  0
 18 20  1  0  0  0  0
  1 21  1  0  0  0  0
 18 21  1  0  0  0  0
 21 22  1  0  0  0  0
 21 23  1  0  0  0  0
 13 24  1  0  0  0  0
 24 25  1  0  0  0  0
M  END
> <VM2 Rank>
98

> <Conf_Id>
1567

> <Probability>
0.00

> <Sum Probability>
99.95

> <Delta G>
4.136

> <G>
66.212

> <E>
33.588

> <-TS>
32.623

> <U+W>
13.021

> <U>
14.959

> <W>
-1.938

> <W(PB)>
-4.057

> <W(SA)>
2.119

> <Valence>
18.592

> <Coulomb>
-6.260

> <VdW>
2.627

> <VdW6>
-13.467

> <VdW12>
16.094

> <Bond>
0.508

> <Angle>
7.247

> <Pdih>
10.836

> <Idih>
0.000

> <Tether>
0.000

$$$$
VeraChem MOL file


 25 25  0  0  0  0  0  0  0  0999 V2000     
   21.3275   19.7204   21.2519 C   0  0  0  0  0  0  0  0  0  0  0  0
   21.9003   20.2129   22.0441 H   0  0  0  0  0  0  0  0  0  0  0  0
   21.8942   19.9593   20.3416 H   0  0  0  0  0  0  0  0  0  0  0  0
   21.3643   18.1727   21.4179 C   0  0  0  0  0  0  0  0  0  0  0  0
   21.3419   17.7342   20.4109 H   0  0  0  0  0  0  0  0  0  0  0  0
   22.3357   17.8829   21.8409 H   0  0  0  0  0  0  0  0  0  0  0  0
   20.2297   17.4949   22.2303 C   0  0  0  0  0  0  0  0  0  0  0  0
   20.3591   16.4079   22.1393 H   0  0  0  0  0  0  0  0  0  0  0  0
   19.2708   17.6810   21.7364 H   0  0  0  0  0  0  0  0  0  0  0  0
   20.1426   17.8208   23.7512 C   0  0  0  0  0  0  0  0  0  0  0  0
   19.1303   17.5908   24.1080 H   0  0  0  0  0  0  0  0  0  0  0  0
   20.8066   17.1189   24.2729 H   0  0  0  0  0  0  0  0  0  0  0  0
   20.5343   19.2439   24.2216 C   0  0  0  0  0  0  0  0  0  0  0  0
   21.5632   19.4331   23.8985 H   0  0  0  0  0  0  0  0  0  0  0  0
   19.6170   20.4151   23.7650 C   0  0  0  0  0  0  0  0  0  0  0  0
   18.7890   20.4978   24.4821 H   0  0  0  0  0  0  0  0  0  0  0  0
   20.1807   21.3528   23.8513 H   0  0  0  0  0  0  0  0  0  0  0  0
   18.9783   20.3447   22.3516 C   0  0  0  0  0  0  0  0  0  0  0  0
   18.2873   21.1934   22.2570 H   0  0  0  0  0  0  0  0  0  0  0  0
   18.3203   19.4718   22.2950 H   0  0  0  0  0  0  0  0  0  0  0  0
   19.9366   20.3963   21.1259 C   0  0  0  0  0  0  0  0  0  0  0  0
   20.1151   21.4549   20.8926 H   0  0  0  0  0  0  0  0  0  0  0  0
   19.4148   19.9880   20.2499 H   0  0  0  0  0  0  0  0  0  0  0  0
   20.5336   19.2341   25.6444 O   0  0  0  0  0  0  0  0  0  0  0  0
   20.8416   20.1187   25.9327 H   0  0  0  0  0  0  0  0  0  0  0  0
  1  2  1  0  0  0  0
  1  3  1  0  0  0  0
  1  4  1  0  0  0  0
  4  5  1  0  0  0  0
  4  6  1  0  0  0  0
  4  7  1  0  0  0  0
  7  8  1  0  0  0  0
  7  9  1  0  0  0  0
  7 10  1  0  0  0  0
 10 11  1  0  0  0  0
 10 12  1  0  0  0  0
 10 13  1  0  0  0  0
 13 14  1  0  0  0  0
 13 15  1  0  0  0  0
 15 16  1  0  0  0  0
 15 17  1  0  0  0  0
 15 18  1  0  0  0  0
 18 19  1  0  0  0  0
 18 20  1  0  0  0  0
  1 21  1  0  0  0  0
 18 21  1  0  0  0  0
 21 22  1  0  0  0  0
 21 23  1  0  0  0  0
 13 24  1  0  0  0  0
 24 25  1  0  0  0  0
M  END
> <VM2 Rank>
99

> <Conf_Id>
1840

> <Probability>
0.00

> <Sum Probability>
99.95

> <Delta G>
4.145

> <G>
66.220

> <E>
33.542

> <-TS>
32.679

> <U+W>
12.974

> <U>
15.029

> <W>
-2.055

> <W(PB)>
-4.194

> <W(SA)>
2.139

> <Valence>
18.887

> <Coulomb>
-8.127

> <VdW>
4.269

> <VdW6>
-13.485

> <VdW12>
17.754

> <Bond>
0.714

> <Angle>
8.960

> <Pdih>
9.213

> <Idih>
0.000

> <Tether>
0.000

$$$$
VeraChem MOL file


 25 25  0  0  0  0  0  0  0  0999 V2000     
   21.3787   19.5598   21.2421 C   0  0  0  0  0  0  0  0  0  0  0  0
   22.1364   19.6271   22.0292 H   0  0  0  0  0  0  0  0  0  0  0  0
   21.9418   19.7858   20.3263 H   0  0  0  0  0  0  0  0  0  0  0  0
   20.8789   18.0950   21.1325 C   0  0  0  0  0  0  0  0  0  0  0  0
   20.2163   18.0039   20.2612 H   0  0  0  0  0  0  0  0  0  0  0  0
   21.7550   17.4745   20.8994 H   0  0  0  0  0  0  0  0  0  0  0  0
   20.1751   17.4619   22.3682 C   0  0  0  0  0  0  0  0  0  0  0  0
   20.2909   16.3728   22.2828 H   0  0  0  0  0  0  0  0  0  0  0  0
   19.0916   17.6085   22.3168 H   0  0  0  0  0  0  0  0  0  0  0  0
   20.6832   17.8788   23.7748 C   0  0  0  0  0  0  0  0  0  0  0  0
   20.1635   17.2390   24.5009 H   0  0  0  0  0  0  0  0  0  0  0  0
   21.7466   17.6199   23.8571 H   0  0  0  0  0  0  0  0  0  0  0  0
   20.4997   19.3589   24.2191 C   0  0  0  0  0  0  0  0  0  0  0  0
   21.3563   19.9536   23.8854 H   0  0  0  0  0  0  0  0  0  0  0  0
   19.2103   20.0780   23.7498 C   0  0  0  0  0  0  0  0  0  0  0  0
   18.3365   19.5242   24.1169 H   0  0  0  0  0  0  0  0  0  0  0  0
   19.1821   21.0484   24.2629 H   0  0  0  0  0  0  0  0  0  0  0  0
   19.0311   20.3555   22.2273 C   0  0  0  0  0  0  0  0  0  0  0  0
   18.3495   21.2118   22.1327 H   0  0  0  0  0  0  0  0  0  0  0  0
   18.4854   19.5390   21.7441 H   0  0  0  0  0  0  0  0  0  0  0  0
   20.3063   20.6769   21.4044 C   0  0  0  0  0  0  0  0  0  0  0  0
   20.7867   21.5746   21.8165 H   0  0  0  0  0  0  0  0  0  0  0  0
   19.9730   20.9605   20.3967 H   0  0  0  0  0  0  0  0  0  0  0  0
   20.5008   19.3782   25.6417 O   0  0  0  0  0  0  0  0  0  0  0  0
   21.3477   18.9772   25.9286 H   0  0  0  0  0  0  0  0  0  0  0  0
  1  2  1  0  0  0  0
  1  3  1  0  0  0  0
  1  4  1  0  0  0  0
  4  5  1  0  0  0  0
  4  6  1  0  0  0  0
  4  7  1  0  0  0  0
  7  8  1  0  0  0  0
  7  9  1  0  0  0  0
  7 10  1  0  0  0  0
 10 11  1  0  0  0  0
 10 12  1  0  0  0  0
 10 13  1  0  0  0  0
 13 14  1  0  0  0  0
 13 15  1  0  0  0  0
 15 16  1  0  0  0  0
 15 17  1  0  0  0  0
 15 18  1  0  0  0  0
 18 19  1  0  0  0  0
 18 20  1  0  0  0  0
  1 21  1  0  0  0  0
 18 21  1  0  0  0  0
 21 22  1  0  0  0  0
 21 23  1  0  0  0  0
 13 24  1  0  0  0  0
 24 25  1  0  0  0  0
M  END
> <VM2 Rank>
100

> <Conf_Id>
793

> <Probability>
0.00

> <Sum Probability>
99.96

> <Delta G>
4.147

> <G>
66.222

> <E>
33.544

> <-TS>
32.678

> <U+W>
12.976

> <U>
15.029

> <W>
-2.053

> <W(PB)>
-4.201

> <W(SA)>
2.148

> <Valence>
18.886

> <Coulomb>
-8.127

> <VdW>
4.270

> <VdW6>
-13.485

> <VdW12>
17.756

> <Bond>
0.714

> <Angle>
8.958

> <Pdih>
9.214

> <Idih>
0.000

> <Tether>
0.000

$$$$
VeraChem MOL file


 25 25  0  0  0  0  0  0  0  0999 V2000     
   20.7137   19.4960   20.7213 C   0  0  0  0  0  0  0  0  0  0  0  0
   21.3133   20.3835   20.4782 H   0  0  0  0  0  0  0  0  0  0  0  0
   20.4818   19.0267   19.7555 H   0  0  0  0  0  0  0  0  0  0  0  0
   21.5966   18.4959   21.5238 C   0  0  0  0  0  0  0  0  0  0  0  0
   22.2346   17.9754   20.7965 H   0  0  0  0  0  0  0  0  0  0  0  0
   22.3139   19.0292   22.1554 H   0  0  0  0  0  0  0  0  0  0  0  0
   20.8720   17.4142   22.3671 C   0  0  0  0  0  0  0  0  0  0  0  0
   21.6463   16.7371   22.7531 H   0  0  0  0  0  0  0  0  0  0  0  0
   20.2486   16.7982   21.7050 H   0  0  0  0  0  0  0  0  0  0  0  0
   20.0115   17.8788   23.5799 C   0  0  0  0  0  0  0  0  0  0  0  0
   18.9729   18.0386   23.2768 H   0  0  0  0  0  0  0  0  0  0  0  0
   19.9523   17.0281   24.2719 H   0  0  0  0  0  0  0  0  0  0  0  0
   20.5052   19.1039   24.3905 C   0  0  0  0  0  0  0  0  0  0  0  0
   21.5230   18.8887   24.7456 H   0  0  0  0  0  0  0  0  0  0  0  0
   20.5329   20.4859   23.6761 C   0  0  0  0  0  0  0  0  0  0  0  0
   20.4902   21.2612   24.4530 H   0  0  0  0  0  0  0  0  0  0  0  0
   21.5093   20.6535   23.2133 H   0  0  0  0  0  0  0  0  0  0  0  0
   19.4169   20.7973   22.6414 C   0  0  0  0  0  0  0  0  0  0  0  0
   19.5438   21.8465   22.3415 H   0  0  0  0  0  0  0  0  0  0  0  0
   18.4376   20.7523   23.1362 H   0  0  0  0  0  0  0  0  0  0  0  0
   19.3638   19.9459   21.3396 C   0  0  0  0  0  0  0  0  0  0  0  0
   18.7160   19.0733   21.4689 H   0  0  0  0  0  0  0  0  0  0  0  0
   18.8376   20.5455   20.5842 H   0  0  0  0  0  0  0  0  0  0  0  0
   19.6516   19.2251   25.5204 O   0  0  0  0  0  0  0  0  0  0  0  0
   18.7764   19.4862   25.1683 H   0  0  0  0  0  0  0  0  0  0  0  0
  1  2  1  0  0  0  0
  1  3  1  0  0  0  0
  1  4  1  0  0  0  0
  4  5  1  0  0  0  0
  4  6  1  0  0  0  0
  4  7  1  0  0  0  0
  7  8  1  0  0  0  0
  7  9  1  0  0  0  0
  7 10  1  0  0  0  0
 10 11  1  0  0  0  0
 10 12  1  0  0  0  0
 10 13  1  0  0  0  0
 13 14  1  0  0  0  0
 13 15  1  0  0  0  0
 15 16  1  0  0  0  0
 15 17  1  0  0  0  0
 15 18  1  0  0  0  0
 18 19  1  0  0  0  0
 18 20  1  0  0  0  0
  1 21  1  0  0  0  0
 18 21  1  0  0  0  0
 21 22  1  0  0  0  0
 21 23  1  0  0  0  0
 13 24  1  0  0  0  0
 24 25  1  0  0  0  0
M  END
> <VM2 Rank>
101

> <Conf_Id>
1665

> <Probability>
0.00

> <Sum Probability>
99.96

> <Delta G>
4.153

> <G>
66.228

> <E>
33.565

> <-TS>
32.663

> <U+W>
12.998

> <U>
14.560

> <W>
-1.562

> <W(PB)>
-3.690

> <W(SA)>
2.128

> <Valence>
19.306

> <Coulomb>
-8.913

> <VdW>
4.167

> <VdW6>
-13.653

> <VdW12>
17.820

> <Bond>
0.720

> <Angle>
9.343

> <Pdih>
9.243

> <Idih>
0.000

> <Tether>
0.000

$$$$
VeraChem MOL file


 25 25  0  0  0  0  0  0  0  0999 V2000     
   20.7875   19.2851   20.7187 C   0  0  0  0  0  0  0  0  0  0  0  0
   20.2823   19.4169   19.7521 H   0  0  0  0  0  0  0  0  0  0  0  0
   21.8465   19.1248   20.4753 H   0  0  0  0  0  0  0  0  0  0  0  0
   20.2096   17.9947   21.3572 C   0  0  0  0  0  0  0  0  0  0  0  0
   19.1289   18.1078   21.4876 H   0  0  0  0  0  0  0  0  0  0  0  0
   20.2948   17.1909   20.6133 H   0  0  0  0  0  0  0  0  0  0  0  0
   20.8768   17.4780   22.6650 C   0  0  0  0  0  0  0  0  0  0  0  0
   21.7357   16.8590   22.3720 H   0  0  0  0  0  0  0  0  0  0  0  0
   20.1837   16.7933   23.1716 H   0  0  0  0  0  0  0  0  0  0  0  0
   21.4030   18.5265   23.6833 C   0  0  0  0  0  0  0  0  0  0  0  0
   21.9481   17.9830   24.4668 H   0  0  0  0  0  0  0  0  0  0  0  0
   22.1847   19.1268   23.2098 H   0  0  0  0  0  0  0  0  0  0  0  0
   20.3666   19.4494   24.3869 C   0  0  0  0  0  0  0  0  0  0  0  0
   20.8959   20.3506   24.7277 H   0  0  0  0  0  0  0  0  0  0  0  0
   19.1275   19.9005   23.5728 C   0  0  0  0  0  0  0  0  0  0  0  0
   18.5435   19.0221   23.2839 H   0  0  0  0  0  0  0  0  0  0  0  0
   18.4617   20.4412   24.2586 H   0  0  0  0  0  0  0  0  0  0  0  0
   19.3627   20.8312   22.3457 C   0  0  0  0  0  0  0  0  0  0  0  0
   18.4858   20.7775   21.6865 H   0  0  0  0  0  0  0  0  0  0  0  0
   19.3868   21.8650   22.7167 H   0  0  0  0  0  0  0  0  0  0  0  0
   20.6478   20.6232   21.5021 C   0  0  0  0  0  0  0  0  0  0  0  0
   21.5270   20.8015   22.1290 H   0  0  0  0  0  0  0  0  0  0  0  0
   20.6928   21.4346   20.7629 H   0  0  0  0  0  0  0  0  0  0  0  0
   19.8825   18.7544   25.5283 O   0  0  0  0  0  0  0  0  0  0  0  0
   19.4835   17.9274   25.1891 H   0  0  0  0  0  0  0  0  0  0  0  0
  1  2  1  0  0  0  0
  1  3  1  0  0  0  0
  1  4  1  0  0  0  0
  4  5  1  0  0  0  0
  4  6  1  0  0  0  0
  4  7  1  0  0  0  0
  7  8  1  0  0  0  0
  7  9  1  0  0  0  0
  7 10  1  0  0  0  0
 10 11  1  0  0  0  0
 10 12  1  0  0  0  0
 10 13  1  0  0  0  0
 13 14  1  0  0  0  0
 13 15  1  0  0  0  0
 15 16  1  0  0  0  0
 15 17  1  0  0  0  0
 15 18  1  0  0  0  0
 18 19  1  0  0  0  0
 18 20  1  0  0  0  0
  1 21  1  0  0  0  0
 18 21  1  0  0  0  0
 21 22  1  0  0  0  0
 21 23  1  0  0  0  0
 13 24  1  0  0  0  0
 24 25  1  0  0  0  0
M  END
> <VM2 Rank>
102

> <Conf_Id>
1885

> <Probability>
0.00

> <Sum Probability>
99.97

> <Delta G>
4.165

> <G>
66.240

> <E>
33.577

> <-TS>
32.664

> <U+W>
13.009

> <U>
14.560

> <W>
-1.550

> <W(PB)>
-3.681

> <W(SA)>
2.130

> <Valence>
19.306

> <Coulomb>
-8.913

> <VdW>
4.167

> <VdW6>
-13.653

> <VdW12>
17.820

> <Bond>
0.720

> <Angle>
9.343

> <Pdih>
9.243

> <Idih>
0.000

> <Tether>
0.000

$$$$
VeraChem MOL file


 25 25  0  0  0  0  0  0  0  0999 V2000     
   21.3789   19.5598   21.2421 C   0  0  0  0  0  0  0  0  0  0  0  0
   22.1365   19.6270   22.0294 H   0  0  0  0  0  0  0  0  0  0  0  0
   21.9421   19.7862   20.3265 H   0  0  0  0  0  0  0  0  0  0  0  0
   20.8796   18.0949   21.1321 C   0  0  0  0  0  0  0  0  0  0  0  0
   20.2174   18.0035   20.2606 H   0  0  0  0  0  0  0  0  0  0  0  0
   21.7561   17.4748   20.8994 H   0  0  0  0  0  0  0  0  0  0  0  0
   20.1758   17.4612   22.3677 C   0  0  0  0  0  0  0  0  0  0  0  0
   20.2937   16.3723   22.2833 H   0  0  0  0  0  0  0  0  0  0  0  0
   19.0921   17.6058   22.3152 H   0  0  0  0  0  0  0  0  0  0  0  0
   20.6816   17.8798   23.7748 C   0  0  0  0  0  0  0  0  0  0  0  0
   20.1625   17.2419   24.5028 H   0  0  0  0  0  0  0  0  0  0  0  0
   21.7448   17.6224   23.8623 H   0  0  0  0  0  0  0  0  0  0  0  0
   20.4993   19.3596   24.2194 C   0  0  0  0  0  0  0  0  0  0  0  0
   21.3585   19.9506   23.8858 H   0  0  0  0  0  0  0  0  0  0  0  0
   19.2098   20.0799   23.7501 C   0  0  0  0  0  0  0  0  0  0  0  0
   18.3357   19.5252   24.1156 H   0  0  0  0  0  0  0  0  0  0  0  0
   19.1776   21.0528   24.2577 H   0  0  0  0  0  0  0  0  0  0  0  0
   19.0310   20.3544   22.2272 C   0  0  0  0  0  0  0  0  0  0  0  0
   18.3481   21.2094   22.1304 H   0  0  0  0  0  0  0  0  0  0  0  0
   18.4866   19.5364   21.7449 H   0  0  0  0  0  0  0  0  0  0  0  0
   20.3060   20.6765   21.4044 C   0  0  0  0  0  0  0  0  0  0  0  0
   20.7860   21.5747   21.8158 H   0  0  0  0  0  0  0  0  0  0  0  0
   19.9725   20.9594   20.3966 H   0  0  0  0  0  0  0  0  0  0  0  0
   20.5019   19.3769   25.6421 O   0  0  0  0  0  0  0  0  0  0  0  0
   20.4525   20.3170   25.9138 H   0  0  0  0  0  0  0  0  0  0  0  0
  1  2  1  0  0  0  0
  1  3  1  0  0  0  0
  1  4  1  0  0  0  0
  4  5  1  0  0  0  0
  4  6  1  0  0  0  0
  4  7  1  0  0  0  0
  7  8  1  0  0  0  0
  7  9  1  0  0  0  0
  7 10  1  0  0  0  0
 10 11  1  0  0  0  0
 10 12  1  0  0  0  0
 10 13  1  0  0  0  0
 13 14  1  0  0  0  0
 13 15  1  0  0  0  0
 15 16  1  0  0  0  0
 15 17  1  0  0  0  0
 15 18  1  0  0  0  0
 18 19  1  0  0  0  0
 18 20  1  0  0  0  0
  1 21  1  0  0  0  0
 18 21  1  0  0  0  0
 21 22  1  0  0  0  0
 21 23  1  0  0  0  0
 13 24  1  0  0  0  0
 24 25  1  0  0  0  0
M  END
> <VM2 Rank>
103

> <Conf_Id>
1478

> <Probability>
0.00

> <Sum Probability>
99.97

> <Delta G>
4.183

> <G>
66.258

> <E>
33.597

> <-TS>
32.661

> <U+W>
13.030

> <U>
15.076

> <W>
-2.046

> <W(PB)>
-4.188

> <W(SA)>
2.142

> <Valence>
18.884

> <Coulomb>
-8.074

> <VdW>
4.265

> <VdW6>
-13.486

> <VdW12>
17.751

> <Bond>
0.713

> <Angle>
8.958

> <Pdih>
9.213

> <Idih>
0.000

> <Tether>
0.000

$$$$
VeraChem MOL file


 25 25  0  0  0  0  0  0  0  0999 V2000     
   21.3277   19.7205   21.2520 C   0  0  0  0  0  0  0  0  0  0  0  0
   21.8947   19.9592   20.3418 H   0  0  0  0  0  0  0  0  0  0  0  0
   21.9002   20.2131   22.0443 H   0  0  0  0  0  0  0  0  0  0  0  0
   21.3639   18.1728   21.4180 C   0  0  0  0  0  0  0  0  0  0  0  0
   21.3409   17.7346   20.4108 H   0  0  0  0  0  0  0  0  0  0  0  0
   22.3353   17.8823   21.8404 H   0  0  0  0  0  0  0  0  0  0  0  0
   20.2288   17.4957   22.2301 C   0  0  0  0  0  0  0  0  0  0  0  0
   20.3564   16.4086   22.1370 H   0  0  0  0  0  0  0  0  0  0  0  0
   19.2699   17.6838   21.7371 H   0  0  0  0  0  0  0  0  0  0  0  0
   20.1434   17.8192   23.7515 C   0  0  0  0  0  0  0  0  0  0  0  0
   19.1303   17.5897   24.1067 H   0  0  0  0  0  0  0  0  0  0  0  0
   20.8062   17.1125   24.2677 H   0  0  0  0  0  0  0  0  0  0  0  0
   20.5346   19.2431   24.2219 C   0  0  0  0  0  0  0  0  0  0  0  0
   21.5627   19.4366   23.8989 H   0  0  0  0  0  0  0  0  0  0  0  0
   19.6167   20.4133   23.7650 C   0  0  0  0  0  0  0  0  0  0  0  0
   18.7906   20.4953   24.4841 H   0  0  0  0  0  0  0  0  0  0  0  0
   20.1814   21.3498   23.8565 H   0  0  0  0  0  0  0  0  0  0  0  0
   18.9784   20.3457   22.3512 C   0  0  0  0  0  0  0  0  0  0  0  0
   18.3188   19.4740   22.2935 H   0  0  0  0  0  0  0  0  0  0  0  0
   18.2889   21.1957   22.2575 H   0  0  0  0  0  0  0  0  0  0  0  0
   19.9370   20.3968   21.1256 C   0  0  0  0  0  0  0  0  0  0  0  0
   20.1159   21.4553   20.8924 H   0  0  0  0  0  0  0  0  0  0  0  0
   19.4153   19.9887   20.2494 H   0  0  0  0  0  0  0  0  0  0  0  0
   20.5335   19.2359   25.6448 O   0  0  0  0  0  0  0  0  0  0  0  0
   21.1634   18.5395   25.9247 H   0  0  0  0  0  0  0  0  0  0  0  0
  1  2  1  0  0  0  0
  1  3  1  0  0  0  0
  1  4  1  0  0  0  0
  4  5  1  0  0  0  0
  4  6  1  0  0  0  0
  4  7  1  0  0  0  0
  7  8  1  0  0  0  0
  7  9  1  0  0  0  0
  7 10  1  0  0  0  0
 10 11  1  0  0  0  0
 10 12  1  0  0  0  0
 10 13  1  0  0  0  0
 13 14  1  0  0  0  0
 13 15  1  0  0  0  0
 15 16  1  0  0  0  0
 15 17  1  0  0  0  0
 15 18  1  0  0  0  0
 18 19  1  0  0  0  0
 18 20  1  0  0  0  0
  1 21  1  0  0  0  0
 18 21  1  0  0  0  0
 21 22  1  0  0  0  0
 21 23  1  0  0  0  0
 13 24  1  0  0  0  0
 24 25  1  0  0  0  0
M  END
> <VM2 Rank>
104

> <Conf_Id>
259

> <Probability>
0.00

> <Sum Probability>
99.97

> <Delta G>
4.186

> <G>
66.261

> <E>
33.601

> <-TS>
32.661

> <U+W>
13.033

> <U>
15.076

> <W>
-2.043

> <W(PB)>
-4.186

> <W(SA)>
2.143

> <Valence>
18.884

> <Coulomb>
-8.074

> <VdW>
4.266

> <VdW6>
-13.486

> <VdW12>
17.752

> <Bond>
0.713

> <Angle>
8.956

> <Pdih>
9.214

> <Idih>
0.000

> <Tether>
0.000

$$$$
VeraChem MOL file


 25 25  0  0  0  0  0  0  0  0999 V2000     
   21.3788   19.5590   21.2430 C   0  0  0  0  0  0  0  0  0  0  0  0
   21.9428   19.7852   20.3278 H   0  0  0  0  0  0  0  0  0  0  0  0
   22.1359   19.6243   22.0309 H   0  0  0  0  0  0  0  0  0  0  0  0
   20.8766   18.0952   21.1317 C   0  0  0  0  0  0  0  0  0  0  0  0
   20.2118   18.0063   20.2618 H   0  0  0  0  0  0  0  0  0  0  0  0
   21.7513   17.4739   20.8957 H   0  0  0  0  0  0  0  0  0  0  0  0
   20.1753   17.4612   22.3685 C   0  0  0  0  0  0  0  0  0  0  0  0
   20.2926   16.3723   22.2828 H   0  0  0  0  0  0  0  0  0  0  0  0
   19.0915   17.6066   22.3186 H   0  0  0  0  0  0  0  0  0  0  0  0
   20.6862   17.8792   23.7738 C   0  0  0  0  0  0  0  0  0  0  0  0
   20.1780   17.2321   24.5010 H   0  0  0  0  0  0  0  0  0  0  0  0
   21.7522   17.6296   23.8525 H   0  0  0  0  0  0  0  0  0  0  0  0
   20.4978   19.3583   24.2194 C   0  0  0  0  0  0  0  0  0  0  0  0
   21.3554   19.9527   23.8881 H   0  0  0  0  0  0  0  0  0  0  0  0
   19.2085   20.0782   23.7496 C   0  0  0  0  0  0  0  0  0  0  0  0
   18.3311   19.5271   24.1119 H   0  0  0  0  0  0  0  0  0  0  0  0
   19.1814   21.0500   24.2605 H   0  0  0  0  0  0  0  0  0  0  0  0
   19.0316   20.3554   22.2269 C   0  0  0  0  0  0  0  0  0  0  0  0
   18.4871   19.5385   21.7427 H   0  0  0  0  0  0  0  0  0  0  0  0
   18.3498   21.2114   22.1309 H   0  0  0  0  0  0  0  0  0  0  0  0
   20.3078   20.6773   21.4061 C   0  0  0  0  0  0  0  0  0  0  0  0
   20.7888   21.5737   21.8203 H   0  0  0  0  0  0  0  0  0  0  0  0
   19.9760   20.9630   20.3985 H   0  0  0  0  0  0  0  0  0  0  0  0
   20.5015   19.3794   25.6411 O   0  0  0  0  0  0  0  0  0  0  0  0
   19.7101   18.8792   25.9277 H   0  0  0  0  0  0  0  0  0  0  0  0
  1  2  1  0  0  0  0
  1  3  1  0  0  0  0
  1  4  1  0  0  0  0
  4  5  1  0  0  0  0
  4  6  1  0  0  0  0
  4  7  1  0  0  0  0
  7  8  1  0  0  0  0
  7  9  1  0  0  0  0
  7 10  1  0  0  0  0
 10 11  1  0  0  0  0
 10 12  1  0  0  0  0
 10 13  1  0  0  0  0
 13 14  1  0  0  0  0
 13 15  1  0  0  0  0
 15 16  1  0  0  0  0
 15 17  1  0  0  0  0
 15 18  1  0  0  0  0
 18 19  1  0  0  0  0
 18 20  1  0  0  0  0
  1 21  1  0  0  0  0
 18 21  1  0  0  0  0
 21 22  1  0  0  0  0
 21 23  1  0  0  0  0
 13 24  1  0  0  0  0
 24 25  1  0  0  0  0
M  END
> <VM2 Rank>
105

> <Conf_Id>
1647

> <Probability>
0.00

> <Sum Probability>
99.98

> <Delta G>
4.200

> <G>
66.276

> <E>
33.617

> <-TS>
32.659

> <U+W>
13.049

> <U>
15.005

> <W>
-1.955

> <W(PB)>
-4.087

> <W(SA)>
2.131

> <Valence>
19.235

> <Coulomb>
-8.450

> <VdW>
4.220

> <VdW6>
-13.529

> <VdW12>
17.749

> <Bond>
0.710

> <Angle>
8.936

> <Pdih>
9.589

> <Idih>
0.000

> <Tether>
0.000

$$$$
VeraChem MOL file


 25 25  0  0  0  0  0  0  0  0999 V2000     
   21.3271   19.7211   21.2529 C   0  0  0  0  0  0  0  0  0  0  0  0
   21.8947   19.9606   20.3432 H   0  0  0  0  0  0  0  0  0  0  0  0
   21.8980   20.2146   22.0460 H   0  0  0  0  0  0  0  0  0  0  0  0
   21.3658   18.1736   21.4197 C   0  0  0  0  0  0  0  0  0  0  0  0
   21.3461   17.7346   20.4128 H   0  0  0  0  0  0  0  0  0  0  0  0
   22.3366   17.8852   21.8450 H   0  0  0  0  0  0  0  0  0  0  0  0
   20.2300   17.4954   22.2298 C   0  0  0  0  0  0  0  0  0  0  0  0
   20.3592   16.4084   22.1375 H   0  0  0  0  0  0  0  0  0  0  0  0
   19.2719   17.6826   21.7348 H   0  0  0  0  0  0  0  0  0  0  0  0
   20.1413   17.8194   23.7509 C   0  0  0  0  0  0  0  0  0  0  0  0
   19.1284   17.5850   24.1028 H   0  0  0  0  0  0  0  0  0  0  0  0
   20.8069   17.1172   24.2705 H   0  0  0  0  0  0  0  0  0  0  0  0
   20.5324   19.2430   24.2219 C   0  0  0  0  0  0  0  0  0  0  0  0
   21.5619   19.4330   23.9013 H   0  0  0  0  0  0  0  0  0  0  0  0
   19.6193   20.4170   23.7640 C   0  0  0  0  0  0  0  0  0  0  0  0
   18.7942   20.5130   24.4821 H   0  0  0  0  0  0  0  0  0  0  0  0
   20.1916   21.3499   23.8468 H   0  0  0  0  0  0  0  0  0  0  0  0
   18.9780   20.3453   22.3519 C   0  0  0  0  0  0  0  0  0  0  0  0
   18.3190   19.4730   22.2968 H   0  0  0  0  0  0  0  0  0  0  0  0
   18.2881   21.1949   22.2570 H   0  0  0  0  0  0  0  0  0  0  0  0
   19.9352   20.3945   21.1252 C   0  0  0  0  0  0  0  0  0  0  0  0
   20.1122   21.4526   20.8888 H   0  0  0  0  0  0  0  0  0  0  0  0
   19.4135   19.9830   20.2505 H   0  0  0  0  0  0  0  0  0  0  0  0
   20.5347   19.2337   25.6437 O   0  0  0  0  0  0  0  0  0  0  0  0
   19.6193   19.0245   25.9210 H   0  0  0  0  0  0  0  0  0  0  0  0
  1  2  1  0  0  0  0
  1  3  1  0  0  0  0
  1  4  1  0  0  0  0
  4  5  1  0  0  0  0
  4  6  1  0  0  0  0
  4  7  1  0  0  0  0
  7  8  1  0  0  0  0
  7  9  1  0  0  0  0
  7 10  1  0  0  0  0
 10 11  1  0  0  0  0
 10 12  1  0  0  0  0
 10 13  1  0  0  0  0
 13 14  1  0  0  0  0
 13 15  1  0  0  0  0
 15 16  1  0  0  0  0
 15 17  1  0  0  0  0
 15 18  1  0  0  0  0
 18 19  1  0  0  0  0
 18 20  1  0  0  0  0
  1 21  1  0  0  0  0
 18 21  1  0  0  0  0
 21 22  1  0  0  0  0
 21 23  1  0  0  0  0
 13 24  1  0  0  0  0
 24 25  1  0  0  0  0
M  END
> <VM2 Rank>
106

> <Conf_Id>
1981

> <Probability>
0.00

> <Sum Probability>
99.98

> <Delta G>
4.254

> <G>
66.330

> <E>
33.671

> <-TS>
32.658

> <U+W>
13.104

> <U>
15.005

> <W>
-1.901

> <W(PB)>
-4.032

> <W(SA)>
2.131

> <Valence>
19.235

> <Coulomb>
-8.450

> <VdW>
4.220

> <VdW6>
-13.530

> <VdW12>
17.749

> <Bond>
0.710

> <Angle>
8.936

> <Pdih>
9.589

> <Idih>
0.000

> <Tether>
0.000

$$$$
VeraChem MOL file


 25 25  0  0  0  0  0  0  0  0999 V2000     
   20.7215   19.5006   20.7225 C   0  0  0  0  0  0  0  0  0  0  0  0
   21.3226   20.3898   20.4896 H   0  0  0  0  0  0  0  0  0  0  0  0
   20.4971   19.0372   19.7521 H   0  0  0  0  0  0  0  0  0  0  0  0
   21.5977   18.4952   21.5259 C   0  0  0  0  0  0  0  0  0  0  0  0
   22.2362   17.9733   20.8000 H   0  0  0  0  0  0  0  0  0  0  0  0
   22.3146   19.0246   22.1614 H   0  0  0  0  0  0  0  0  0  0  0  0
   20.8649   17.4155   22.3649 C   0  0  0  0  0  0  0  0  0  0  0  0
   21.6339   16.7313   22.7487 H   0  0  0  0  0  0  0  0  0  0  0  0
   20.2368   16.8066   21.7007 H   0  0  0  0  0  0  0  0  0  0  0  0
   20.0080   17.8827   23.5798 C   0  0  0  0  0  0  0  0  0  0  0  0
   18.9691   18.0507   23.2816 H   0  0  0  0  0  0  0  0  0  0  0  0
   19.9445   17.0325   24.2717 H   0  0  0  0  0  0  0  0  0  0  0  0
   20.5061   19.1058   24.3900 C   0  0  0  0  0  0  0  0  0  0  0  0
   21.5280   18.8900   24.7334 H   0  0  0  0  0  0  0  0  0  0  0  0
   20.5286   20.4879   23.6733 C   0  0  0  0  0  0  0  0  0  0  0  0
   20.4821   21.2672   24.4451 H   0  0  0  0  0  0  0  0  0  0  0  0
   21.5032   20.6578   23.2074 H   0  0  0  0  0  0  0  0  0  0  0  0
   19.4094   20.7909   22.6401 C   0  0  0  0  0  0  0  0  0  0  0  0
   19.5197   21.8437   22.3469 H   0  0  0  0  0  0  0  0  0  0  0  0
   18.4326   20.7256   23.1385 H   0  0  0  0  0  0  0  0  0  0  0  0
   19.3668   19.9452   21.3339 C   0  0  0  0  0  0  0  0  0  0  0  0
   18.7214   19.0698   21.4578 H   0  0  0  0  0  0  0  0  0  0  0  0
   18.8427   20.5456   20.5779 H   0  0  0  0  0  0  0  0  0  0  0  0
   19.6609   19.2194   25.5297 O   0  0  0  0  0  0  0  0  0  0  0  0
   20.0087   19.9605   26.0672 H   0  0  0  0  0  0  0  0  0  0  0  0
  1  2  1  0  0  0  0
  1  3  1  0  0  0  0
  1  4  1  0  0  0  0
  4  5  1  0  0  0  0
  4  6  1  0  0  0  0
  4  7  1  0  0  0  0
  7  8  1  0  0  0  0
  7  9  1  0  0  0  0
  7 10  1  0  0  0  0
 10 11  1  0  0  0  0
 10 12  1  0  0  0  0
 10 13  1  0  0  0  0
 13 14  1  0  0  0  0
 13 15  1  0  0  0  0
 15 16  1  0  0  0  0
 15 17  1  0  0  0  0
 15 18  1  0  0  0  0
 18 19  1  0  0  0  0
 18 20  1  0  0  0  0
  1 21  1  0  0  0  0
 18 21  1  0  0  0  0
 21 22  1  0  0  0  0
 21 23  1  0  0  0  0
 13 24  1  0  0  0  0
 24 25  1  0  0  0  0
M  END
> <VM2 Rank>
107

> <Conf_Id>
1668

> <Probability>
0.00

> <Sum Probability>
99.98

> <Delta G>
4.583

> <G>
66.658

> <E>
33.998

> <-TS>
32.661

> <U+W>
13.430

> <U>
15.643

> <W>
-2.213

> <W(PB)>
-4.344

> <W(SA)>
2.131

> <Valence>
18.917

> <Coulomb>
-7.506

> <VdW>
4.232

> <VdW6>
-13.632

> <VdW12>
17.864

> <Bond>
0.735

> <Angle>
9.140

> <Pdih>
9.042

> <Idih>
0.000

> <Tether>
0.000

$$$$
VeraChem MOL file


 25 25  0  0  0  0  0  0  0  0999 V2000     
   20.7956   19.2878   20.7197 C   0  0  0  0  0  0  0  0  0  0  0  0
   21.8568   19.1275   20.4862 H   0  0  0  0  0  0  0  0  0  0  0  0
   20.2995   19.4209   19.7486 H   0  0  0  0  0  0  0  0  0  0  0  0
   20.2107   17.9973   21.3515 C   0  0  0  0  0  0  0  0  0  0  0  0
   19.1296   18.1140   21.4768 H   0  0  0  0  0  0  0  0  0  0  0  0
   20.2978   17.1944   20.6069 H   0  0  0  0  0  0  0  0  0  0  0  0
   20.8669   17.4769   22.6637 C   0  0  0  0  0  0  0  0  0  0  0  0
   21.7173   16.8432   22.3774 H   0  0  0  0  0  0  0  0  0  0  0  0
   20.1607   16.8077   23.1739 H   0  0  0  0  0  0  0  0  0  0  0  0
   21.4019   18.5220   23.6803 C   0  0  0  0  0  0  0  0  0  0  0  0
   21.9475   17.9729   24.4587 H   0  0  0  0  0  0  0  0  0  0  0  0
   22.1839   19.1194   23.2035 H   0  0  0  0  0  0  0  0  0  0  0  0
   20.3691   19.4489   24.3864 C   0  0  0  0  0  0  0  0  0  0  0  0
   20.9007   20.3533   24.7152 H   0  0  0  0  0  0  0  0  0  0  0  0
   19.1282   19.8953   23.5730 C   0  0  0  0  0  0  0  0  0  0  0  0
   18.5501   19.0112   23.2893 H   0  0  0  0  0  0  0  0  0  0  0  0
   18.4600   20.4324   24.2590 H   0  0  0  0  0  0  0  0  0  0  0  0
   19.3587   20.8250   22.3438 C   0  0  0  0  0  0  0  0  0  0  0  0
   19.3741   21.8597   22.7125 H   0  0  0  0  0  0  0  0  0  0  0  0
   18.4836   20.7630   21.6829 H   0  0  0  0  0  0  0  0  0  0  0  0
   20.6476   20.6245   21.5041 C   0  0  0  0  0  0  0  0  0  0  0  0
   21.5238   20.8051   22.1346 H   0  0  0  0  0  0  0  0  0  0  0  0
   20.6916   21.4372   20.7661 H   0  0  0  0  0  0  0  0  0  0  0  0
   19.8854   18.7654   25.5375 O   0  0  0  0  0  0  0  0  0  0  0  0
   20.6685   18.5294   26.0763 H   0  0  0  0  0  0  0  0  0  0  0  0
  1  2  1  0  0  0  0
  1  3  1  0  0  0  0
  1  4  1  0  0  0  0
  4  5  1  0  0  0  0
  4  6  1  0  0  0  0
  4  7  1  0  0  0  0
  7  8  1  0  0  0  0
  7  9  1  0  0  0  0
  7 10  1  0  0  0  0
 10 11  1  0  0  0  0
 10 12  1  0  0  0  0
 10 13  1  0  0  0  0
 13 14  1  0  0  0  0
 13 15  1  0  0  0  0
 15 16  1  0  0  0  0
 15 17  1  0  0  0  0
 15 18  1  0  0  0  0
 18 19  1  0  0  0  0
 18 20  1  0  0  0  0
  1 21  1  0  0  0  0
 18 21  1  0  0  0  0
 21 22  1  0  0  0  0
 21 23  1  0  0  0  0
 13 24  1  0  0  0  0
 24 25  1  0  0  0  0
M  END
> <VM2 Rank>
108

> <Conf_Id>
1931

> <Probability>
0.00

> <Sum Probability>
99.99

> <Delta G>
4.618

> <G>
66.694

> <E>
34.034

> <-TS>
32.660

> <U+W>
13.466

> <U>
15.643

> <W>
-2.177

> <W(PB)>
-4.308

> <W(SA)>
2.131

> <Valence>
18.916

> <Coulomb>
-7.506

> <VdW>
4.232

> <VdW6>
-13.632

> <VdW12>
17.864

> <Bond>
0.735

> <Angle>
9.139

> <Pdih>
9.043

> <Idih>
0.000

> <Tether>
0.000

$$$$
VeraChem MOL file


 25 25  0  0  0  0  0  0  0  0999 V2000     
   20.1083   19.1066   20.6548 C   0  0  0  0  0  0  0  0  0  0  0  0
   20.5346   19.6852   19.8241 H   0  0  0  0  0  0  0  0  0  0  0  0
   19.3568   18.4435   20.2051 H   0  0  0  0  0  0  0  0  0  0  0  0
   21.2337   18.2385   21.2752 C   0  0  0  0  0  0  0  0  0  0  0  0
   21.4828   17.4589   20.5424 H   0  0  0  0  0  0  0  0  0  0  0  0
   22.1545   18.8255   21.3852 H   0  0  0  0  0  0  0  0  0  0  0  0
   20.8817   17.5475   22.6169 C   0  0  0  0  0  0  0  0  0  0  0  0
   21.4290   16.5951   22.6324 H   0  0  0  0  0  0  0  0  0  0  0  0
   19.8211   17.2661   22.6404 H   0  0  0  0  0  0  0  0  0  0  0  0
   21.3098   18.3294   23.8980 C   0  0  0  0  0  0  0  0  0  0  0  0
   21.5798   17.5791   24.6526 H   0  0  0  0  0  0  0  0  0  0  0  0
   22.2377   18.8855   23.7145 H   0  0  0  0  0  0  0  0  0  0  0  0
   20.2677   19.2637   24.5716 C   0  0  0  0  0  0  0  0  0  0  0  0
   20.5990   19.3814   25.6135 H   0  0  0  0  0  0  0  0  0  0  0  0
   20.1614   20.7115   24.0170 C   0  0  0  0  0  0  0  0  0  0  0  0
   19.1959   21.1321   24.3280 H   0  0  0  0  0  0  0  0  0  0  0  0
   20.9210   21.3205   24.5238 H   0  0  0  0  0  0  0  0  0  0  0  0
   20.3341   20.9270   22.4917 C   0  0  0  0  0  0  0  0  0  0  0  0
   21.3817   20.7640   22.2136 H   0  0  0  0  0  0  0  0  0  0  0  0
   20.1476   21.9871   22.2734 H   0  0  0  0  0  0  0  0  0  0  0  0
   19.3820   20.0722   21.6202 C   0  0  0  0  0  0  0  0  0  0  0  0
   18.7440   20.7415   21.0275 H   0  0  0  0  0  0  0  0  0  0  0  0
   18.6869   19.5028   22.2477 H   0  0  0  0  0  0  0  0  0  0  0  0
   18.9853   18.6467   24.6146 O   0  0  0  0  0  0  0  0  0  0  0  0
   19.1330   17.7234   24.9032 H   0  0  0  0  0  0  0  0  0  0  0  0
  1  2  1  0  0  0  0
  1  3  1  0  0  0  0
  1  4  1  0  0  0  0
  4  5  1  0  0  0  0
  4  6  1  0  0  0  0
  4  7  1  0  0  0  0
  7  8  1  0  0  0  0
  7  9  1  0  0  0  0
  7 10  1  0  0  0  0
 10 11  1  0  0  0  0
 10 12  1  0  0  0  0
 10 13  1  0  0  0  0
 13 14  1  0  0  0  0
 13 15  1  0  0  0  0
 15 16  1  0  0  0  0
 15 17  1  0  0  0  0
 15 18  1  0  0  0  0
 18 19  1  0  0  0  0
 18 20  1  0  0  0  0
  1 21  1  0  0  0  0
 18 21  1  0  0  0  0
 21 22  1  0  0  0  0
 21 23  1  0  0  0  0
 13 24  1  0  0  0  0
 24 25  1  0  0  0  0
M  END
> <VM2 Rank>
109

> <Conf_Id>
1555

> <Probability>
0.00

> <Sum Probability>
99.99

> <Delta G>
4.677

> <G>
66.752

> <E>
34.239

> <-TS>
32.513

> <U+W>
13.671

> <U>
15.604

> <W>
-1.933

> <W(PB)>
-4.049

> <W(SA)>
2.116

> <Valence>
19.784

> <Coulomb>
-7.373

> <VdW>
3.193

> <VdW6>
-13.422

> <VdW12>
16.615

> <Bond>
0.544

> <Angle>
5.995

> <Pdih>
13.244

> <Idih>
0.000

> <Tether>
0.000

$$$$
VeraChem MOL file


 25 25  0  0  0  0  0  0  0  0999 V2000     
   20.1712   19.1430   20.6491 C   0  0  0  0  0  0  0  0  0  0  0  0
   20.9110   19.0415   19.8435 H   0  0  0  0  0  0  0  0  0  0  0  0
   19.1877   19.0738   20.1648 H   0  0  0  0  0  0  0  0  0  0  0  0
   20.3154   17.9466   21.6185 C   0  0  0  0  0  0  0  0  0  0  0  0
   19.4007   17.8504   22.2143 H   0  0  0  0  0  0  0  0  0  0  0  0
   20.3649   17.0231   21.0259 H   0  0  0  0  0  0  0  0  0  0  0  0
   21.5614   18.0234   22.5339 C   0  0  0  0  0  0  0  0  0  0  0  0
   22.1901   18.8843   22.2787 H   0  0  0  0  0  0  0  0  0  0  0  0
   22.1928   17.1466   22.3364 H   0  0  0  0  0  0  0  0  0  0  0  0
   21.2339   18.0497   24.0488 C   0  0  0  0  0  0  0  0  0  0  0  0
   20.8451   17.0664   24.3452 H   0  0  0  0  0  0  0  0  0  0  0  0
   22.1826   18.1625   24.5891 H   0  0  0  0  0  0  0  0  0  0  0  0
   20.2586   19.1410   24.5712 C   0  0  0  0  0  0  0  0  0  0  0  0
   20.5385   19.2929   25.6238 H   0  0  0  0  0  0  0  0  0  0  0  0
   20.3481   20.5399   23.9022 C   0  0  0  0  0  0  0  0  0  0  0  0
   19.9773   21.2579   24.6453 H   0  0  0  0  0  0  0  0  0  0  0  0
   21.4014   20.8106   23.7556 H   0  0  0  0  0  0  0  0  0  0  0  0
   19.5358   20.7857   22.5924 C   0  0  0  0  0  0  0  0  0  0  0  0
   19.2413   21.8440   22.5991 H   0  0  0  0  0  0  0  0  0  0  0  0
   18.5906   20.2279   22.5823 H   0  0  0  0  0  0  0  0  0  0  0  0
   20.3213   20.5530   21.2770 C   0  0  0  0  0  0  0  0  0  0  0  0
   21.3812   20.7966   21.4242 H   0  0  0  0  0  0  0  0  0  0  0  0
   19.9666   21.2787   20.5323 H   0  0  0  0  0  0  0  0  0  0  0  0
   18.9184   18.6607   24.5670 O   0  0  0  0  0  0  0  0  0  0  0  0
   18.3547   19.4137   24.8370 H   0  0  0  0  0  0  0  0  0  0  0  0
  1  2  1  0  0  0  0
  1  3  1  0  0  0  0
  1  4  1  0  0  0  0
  4  5  1  0  0  0  0
  4  6  1  0  0  0  0
  4  7  1  0  0  0  0
  7  8  1  0  0  0  0
  7  9  1  0  0  0  0
  7 10  1  0  0  0  0
 10 11  1  0  0  0  0
 10 12  1  0  0  0  0
 10 13  1  0  0  0  0
 13 14  1  0  0  0  0
 13 15  1  0  0  0  0
 15 16  1  0  0  0  0
 15 17  1  0  0  0  0
 15 18  1  0  0  0  0
 18 19  1  0  0  0  0
 18 20  1  0  0  0  0
  1 21  1  0  0  0  0
 18 21  1  0  0  0  0
 21 22  1  0  0  0  0
 21 23  1  0  0  0  0
 13 24  1  0  0  0  0
 24 25  1  0  0  0  0
M  END
> <VM2 Rank>
110

> <Conf_Id>
513

> <Probability>
0.00

> <Sum Probability>
99.99

> <Delta G>
4.700

> <G>
66.776

> <E>
34.262

> <-TS>
32.514

> <U+W>
13.694

> <U>
15.604

> <W>
-1.910

> <W(PB)>
-4.058

> <W(SA)>
2.148

> <Valence>
19.784

> <Coulomb>
-7.372

> <VdW>
3.193

> <VdW6>
-13.422

> <VdW12>
16.615

> <Bond>
0.544

> <Angle>
5.996

> <Pdih>
13.244

> <Idih>
0.000

> <Tether>
0.000

$$$$
VeraChem MOL file


 25 25  0  0  0  0  0  0  0  0999 V2000     
   20.7267   19.5029   20.7237 C   0  0  0  0  0  0  0  0  0  0  0  0
   20.5071   19.0412   19.7514 H   0  0  0  0  0  0  0  0  0  0  0  0
   21.3286   20.3929   20.4954 H   0  0  0  0  0  0  0  0  0  0  0  0
   21.5988   18.4966   21.5300 C   0  0  0  0  0  0  0  0  0  0  0  0
   22.2410   17.9757   20.8067 H   0  0  0  0  0  0  0  0  0  0  0  0
   22.3120   19.0256   22.1700 H   0  0  0  0  0  0  0  0  0  0  0  0
   20.8608   17.4162   22.3635 C   0  0  0  0  0  0  0  0  0  0  0  0
   21.6272   16.7283   22.7460 H   0  0  0  0  0  0  0  0  0  0  0  0
   20.2322   16.8115   21.6959 H   0  0  0  0  0  0  0  0  0  0  0  0
   20.0035   17.8822   23.5785 C   0  0  0  0  0  0  0  0  0  0  0  0
   18.9660   18.0550   23.2775 H   0  0  0  0  0  0  0  0  0  0  0  0
   19.9370   17.0274   24.2641 H   0  0  0  0  0  0  0  0  0  0  0  0
   20.5061   19.1043   24.3884 C   0  0  0  0  0  0  0  0  0  0  0  0
   21.5309   18.8913   24.7250 H   0  0  0  0  0  0  0  0  0  0  0  0
   20.5235   20.4870   23.6737 C   0  0  0  0  0  0  0  0  0  0  0  0
   20.4674   21.2596   24.4523 H   0  0  0  0  0  0  0  0  0  0  0  0
   21.4994   20.6650   23.2137 H   0  0  0  0  0  0  0  0  0  0  0  0
   19.4058   20.7882   22.6380 C   0  0  0  0  0  0  0  0  0  0  0  0
   19.5130   21.8422   22.3481 H   0  0  0  0  0  0  0  0  0  0  0  0
   18.4284   20.7184   23.1346 H   0  0  0  0  0  0  0  0  0  0  0  0
   19.3690   19.9457   21.3296 C   0  0  0  0  0  0  0  0  0  0  0  0
   18.8480   20.5476   20.5727 H   0  0  0  0  0  0  0  0  0  0  0  0
   18.7236   19.0697   21.4490 H   0  0  0  0  0  0  0  0  0  0  0  0
   19.6699   19.2199   25.5346 O   0  0  0  0  0  0  0  0  0  0  0  0
   19.7223   18.3653   26.0104 H   0  0  0  0  0  0  0  0  0  0  0  0
  1  2  1  0  0  0  0
  1  3  1  0  0  0  0
  1  4  1  0  0  0  0
  4  5  1  0  0  0  0
  4  6  1  0  0  0  0
  4  7  1  0  0  0  0
  7  8  1  0  0  0  0
  7  9  1  0  0  0  0
  7 10  1  0  0  0  0
 10 11  1  0  0  0  0
 10 12  1  0  0  0  0
 10 13  1  0  0  0  0
 13 14  1  0  0  0  0
 13 15  1  0  0  0  0
 15 16  1  0  0  0  0
 15 17  1  0  0  0  0
 15 18  1  0  0  0  0
 18 19  1  0  0  0  0
 18 20  1  0  0  0  0
  1 21  1  0  0  0  0
 18 21  1  0  0  0  0
 21 22  1  0  0  0  0
 21 23  1  0  0  0  0
 13 24  1  0  0  0  0
 24 25  1  0  0  0  0
M  END
> <VM2 Rank>
111

> <Conf_Id>
158

> <Probability>
0.00

> <Sum Probability>
99.99

> <Delta G>
4.702

> <G>
66.777

> <E>
34.090

> <-TS>
32.688

> <U+W>
13.522

> <U>
15.675

> <W>
-2.153

> <W(PB)>
-4.273

> <W(SA)>
2.120

> <Valence>
18.885

> <Coulomb>
-7.469

> <VdW>
4.260

> <VdW6>
-13.645

> <VdW12>
17.904

> <Bond>
0.733

> <Angle>
9.055

> <Pdih>
9.097

> <Idih>
0.000

> <Tether>
0.000

$$$$
VeraChem MOL file


 25 25  0  0  0  0  0  0  0  0999 V2000     
   20.8005   19.2898   20.7207 C   0  0  0  0  0  0  0  0  0  0  0  0
   21.8627   19.1296   20.4917 H   0  0  0  0  0  0  0  0  0  0  0  0
   20.3088   19.4254   19.7478 H   0  0  0  0  0  0  0  0  0  0  0  0
   20.2122   17.9985   21.3474 C   0  0  0  0  0  0  0  0  0  0  0  0
   19.1306   18.1157   21.4682 H   0  0  0  0  0  0  0  0  0  0  0  0
   20.3022   17.1968   20.6018 H   0  0  0  0  0  0  0  0  0  0  0  0
   20.8624   17.4759   22.6617 C   0  0  0  0  0  0  0  0  0  0  0  0
   21.7114   16.8391   22.3786 H   0  0  0  0  0  0  0  0  0  0  0  0
   20.1524   16.8094   23.1701 H   0  0  0  0  0  0  0  0  0  0  0  0
   21.3978   18.5187   23.6806 C   0  0  0  0  0  0  0  0  0  0  0  0
   21.9321   17.9672   24.4658 H   0  0  0  0  0  0  0  0  0  0  0  0
   22.1866   19.1117   23.2096 H   0  0  0  0  0  0  0  0  0  0  0  0
   20.3681   19.4499   24.3848 C   0  0  0  0  0  0  0  0  0  0  0  0
   20.9039   20.3544   24.7067 H   0  0  0  0  0  0  0  0  0  0  0  0
   19.1250   19.8925   23.5719 C   0  0  0  0  0  0  0  0  0  0  0  0
   18.5511   19.0062   23.2855 H   0  0  0  0  0  0  0  0  0  0  0  0
   18.4515   20.4306   24.2517 H   0  0  0  0  0  0  0  0  0  0  0  0
   19.3565   20.8216   22.3425 C   0  0  0  0  0  0  0  0  0  0  0  0
   19.3677   21.8569   22.7099 H   0  0  0  0  0  0  0  0  0  0  0  0
   18.4842   20.7565   21.6783 H   0  0  0  0  0  0  0  0  0  0  0  0
   20.6493   20.6243   21.5080 C   0  0  0  0  0  0  0  0  0  0  0  0
   21.5229   20.8025   22.1429 H   0  0  0  0  0  0  0  0  0  0  0  0
   20.6966   21.4390   20.7726 H   0  0  0  0  0  0  0  0  0  0  0  0
   19.8922   18.7718   25.5424 O   0  0  0  0  0  0  0  0  0  0  0  0
   19.2985   19.3943   26.0108 H   0  0  0  0  0  0  0  0  0  0  0  0
  1  2  1  0  0  0  0
  1  3  1  0  0  0  0
  1  4  1  0  0  0  0
  4  5  1  0  0  0  0
  4  6  1  0  0  0  0
  4  7  1  0  0  0  0
  7  8  1  0  0  0  0
  7  9  1  0  0  0  0
  7 10  1  0  0  0  0
 10 11  1  0  0  0  0
 10 12  1  0  0  0  0
 10 13  1  0  0  0  0
 13 14  1  0  0  0  0
 13 15  1  0  0  0  0
 15 16  1  0  0  0  0
 15 17  1  0  0  0  0
 15 18  1  0  0  0  0
 18 19  1  0  0  0  0
 18 20  1  0  0  0  0
  1 21  1  0  0  0  0
 18 21  1  0  0  0  0
 21 22  1  0  0  0  0
 21 23  1  0  0  0  0
 13 24  1  0  0  0  0
 24 25  1  0  0  0  0
M  END
> <VM2 Rank>
112

> <Conf_Id>
1535

> <Probability>
0.00

> <Sum Probability>
99.99

> <Delta G>
4.714

> <G>
66.790

> <E>
34.102

> <-TS>
32.688

> <U+W>
13.534

> <U>
15.675

> <W>
-2.141

> <W(PB)>
-4.263

> <W(SA)>
2.122

> <Valence>
18.885

> <Coulomb>
-7.469

> <VdW>
4.259

> <VdW6>
-13.644

> <VdW12>
17.904

> <Bond>
0.733

> <Angle>
9.055

> <Pdih>
9.097

> <Idih>
0.000

> <Tether>
0.000

$$$$
VeraChem MOL file


 25 25  0  0  0  0  0  0  0  0999 V2000     
   20.1023   19.1087   20.7568 C   0  0  0  0  0  0  0  0  0  0  0  0
   20.6916   18.8889   19.8562 H   0  0  0  0  0  0  0  0  0  0  0  0
   19.0671   19.2239   20.4085 H   0  0  0  0  0  0  0  0  0  0  0  0
   20.1843   17.8601   21.6826 C   0  0  0  0  0  0  0  0  0  0  0  0
   19.2586   17.7389   22.2540 H   0  0  0  0  0  0  0  0  0  0  0  0
   20.2005   16.9759   21.0311 H   0  0  0  0  0  0  0  0  0  0  0  0
   21.3964   17.7540   22.6454 C   0  0  0  0  0  0  0  0  0  0  0  0
   21.3411   16.7646   23.1195 H   0  0  0  0  0  0  0  0  0  0  0  0
   22.3243   17.7466   22.0582 H   0  0  0  0  0  0  0  0  0  0  0  0
   21.5286   18.8101   23.7852 C   0  0  0  0  0  0  0  0  0  0  0  0
   22.1526   18.3651   24.5710 H   0  0  0  0  0  0  0  0  0  0  0  0
   22.1238   19.6636   23.4494 H   0  0  0  0  0  0  0  0  0  0  0  0
   20.2363   19.3419   24.4575 C   0  0  0  0  0  0  0  0  0  0  0  0
   20.5685   20.0198   25.2570 H   0  0  0  0  0  0  0  0  0  0  0  0
   19.2410   20.1509   23.5797 C   0  0  0  0  0  0  0  0  0  0  0  0
   18.4979   19.4919   23.1211 H   0  0  0  0  0  0  0  0  0  0  0  0
   18.6496   20.7681   24.2681 H   0  0  0  0  0  0  0  0  0  0  0  0
   19.8281   21.0984   22.4978 C   0  0  0  0  0  0  0  0  0  0  0  0
   20.4676   21.8482   22.9827 H   0  0  0  0  0  0  0  0  0  0  0  0
   18.9852   21.6622   22.0754 H   0  0  0  0  0  0  0  0  0  0  0  0
   20.6084   20.4676   21.3076 C   0  0  0  0  0  0  0  0  0  0  0  0
   21.6757   20.3904   21.5364 H   0  0  0  0  0  0  0  0  0  0  0  0
   20.5757   21.1915   20.4819 H   0  0  0  0  0  0  0  0  0  0  0  0
   19.5386   18.2513   25.0473 O   0  0  0  0  0  0  0  0  0  0  0  0
   20.2051   17.7237   25.5324 H   0  0  0  0  0  0  0  0  0  0  0  0
  1  2  1  0  0  0  0
  1  3  1  0  0  0  0
  1  4  1  0  0  0  0
  4  5  1  0  0  0  0
  4  6  1  0  0  0  0
  4  7  1  0  0  0  0
  7  8  1  0  0  0  0
  7  9  1  0  0  0  0
  7 10  1  0  0  0  0
 10 11  1  0  0  0  0
 10 12  1  0  0  0  0
 10 13  1  0  0  0  0
 13 14  1  0  0  0  0
 13 15  1  0  0  0  0
 15 16  1  0  0  0  0
 15 17  1  0  0  0  0
 15 18  1  0  0  0  0
 18 19  1  0  0  0  0
 18 20  1  0  0  0  0
  1 21  1  0  0  0  0
 18 21  1  0  0  0  0
 21 22  1  0  0  0  0
 21 23  1  0  0  0  0
 13 24  1  0  0  0  0
 24 25  1  0  0  0  0
M  END
> <VM2 Rank>
113

> <Conf_Id>
538

> <Probability>
0.00

> <Sum Probability>
99.99

> <Delta G>
4.752

> <G>
66.828

> <E>
34.160

> <-TS>
32.668

> <U+W>
13.592

> <U>
15.621

> <W>
-2.028

> <W(PB)>
-4.146

> <W(SA)>
2.117

> <Valence>
18.961

> <Coulomb>
-7.191

> <VdW>
3.851

> <VdW6>
-13.972

> <VdW12>
17.823

> <Bond>
0.726

> <Angle>
9.581

> <Pdih>
8.653

> <Idih>
0.000

> <Tether>
0.000

$$$$
VeraChem MOL file


 25 25  0  0  0  0  0  0  0  0999 V2000     
   20.0806   19.0931   20.7597 C   0  0  0  0  0  0  0  0  0  0  0  0
   19.4548   18.2531   20.4295 H   0  0  0  0  0  0  0  0  0  0  0  0
   20.3175   19.6580   19.8478 H   0  0  0  0  0  0  0  0  0  0  0  0
   21.4216   18.5428   21.3118 C   0  0  0  0  0  0  0  0  0  0  0  0
   21.9225   18.0101   20.4920 H   0  0  0  0  0  0  0  0  0  0  0  0
   22.0963   19.3783   21.5222 H   0  0  0  0  0  0  0  0  0  0  0  0
   21.3559   17.5626   22.5193 C   0  0  0  0  0  0  0  0  0  0  0  0
   22.3433   17.5249   22.9989 H   0  0  0  0  0  0  0  0  0  0  0  0
   21.1885   16.5550   22.1151 H   0  0  0  0  0  0  0  0  0  0  0  0
   20.2697   17.8005   23.6040 C   0  0  0  0  0  0  0  0  0  0  0  0
   19.2779   17.7009   23.1531 H   0  0  0  0  0  0  0  0  0  0  0  0
   20.3201   16.9588   24.3066 H   0  0  0  0  0  0  0  0  0  0  0  0
   20.3651   19.0948   24.4593 C   0  0  0  0  0  0  0  0  0  0  0  0
   21.0918   18.8875   25.2579 H   0  0  0  0  0  0  0  0  0  0  0  0
   20.8562   20.3898   23.7617 C   0  0  0  0  0  0  0  0  0  0  0  0
   20.9629   21.1627   24.5337 H   0  0  0  0  0  0  0  0  0  0  0  0
   21.8840   20.2348   23.4222 H   0  0  0  0  0  0  0  0  0  0  0  0
   19.9880   20.9957   22.6166 C   0  0  0  0  0  0  0  0  0  0  0  0
   19.2311   21.6398   23.0844 H   0  0  0  0  0  0  0  0  0  0  0  0
   20.6134   21.6678   22.0139 H   0  0  0  0  0  0  0  0  0  0  0  0
   19.2311   20.0223   21.6750 C   0  0  0  0  0  0  0  0  0  0  0  0
   18.5928   20.6274   21.0170 H   0  0  0  0  0  0  0  0  0  0  0  0
   18.5133   19.4395   22.2608 H   0  0  0  0  0  0  0  0  0  0  0  0
   19.0958   19.3413   25.0527 O   0  0  0  0  0  0  0  0  0  0  0  0
   19.1694   20.1966   25.5228 H   0  0  0  0  0  0  0  0  0  0  0  0
  1  2  1  0  0  0  0
  1  3  1  0  0  0  0
  1  4  1  0  0  0  0
  4  5  1  0  0  0  0
  4  6  1  0  0  0  0
  4  7  1  0  0  0  0
  7  8  1  0  0  0  0
  7  9  1  0  0  0  0
  7 10  1  0  0  0  0
 10 11  1  0  0  0  0
 10 12  1  0  0  0  0
 10 13  1  0  0  0  0
 13 14  1  0  0  0  0
 13 15  1  0  0  0  0
 15 16  1  0  0  0  0
 15 17  1  0  0  0  0
 15 18  1  0  0  0  0
 18 19  1  0  0  0  0
 18 20  1  0  0  0  0
  1 21  1  0  0  0  0
 18 21  1  0  0  0  0
 21 22  1  0  0  0  0
 21 23  1  0  0  0  0
 13 24  1  0  0  0  0
 24 25  1  0  0  0  0
M  END
> <VM2 Rank>
114

> <Conf_Id>
1300

> <Probability>
0.00

> <Sum Probability>
100.00

> <Delta G>
4.771

> <G>
66.846

> <E>
34.179

> <-TS>
32.668

> <U+W>
13.611

> <U>
15.621

> <W>
-2.009

> <W(PB)>
-4.125

> <W(SA)>
2.115

> <Valence>
18.961

> <Coulomb>
-7.191

> <VdW>
3.851

> <VdW6>
-13.971

> <VdW12>
17.822

> <Bond>
0.726

> <Angle>
9.581

> <Pdih>
8.653

> <Idih>
0.000

> <Tether>
0.000

$$$$
VeraChem MOL file


 25 25  0  0  0  0  0  0  0  0999 V2000     
   20.1077   19.1076   20.6542 C   0  0  0  0  0  0  0  0  0  0  0  0
   20.5333   19.6876   19.8241 H   0  0  0  0  0  0  0  0  0  0  0  0
   19.3573   18.4437   20.2041 H   0  0  0  0  0  0  0  0  0  0  0  0
   21.2342   18.2409   21.2747 C   0  0  0  0  0  0  0  0  0  0  0  0
   21.4850   17.4622   20.5415 H   0  0  0  0  0  0  0  0  0  0  0  0
   22.1541   18.8288   21.3865 H   0  0  0  0  0  0  0  0  0  0  0  0
   20.8820   17.5481   22.6156 C   0  0  0  0  0  0  0  0  0  0  0  0
   21.4274   16.5948   22.6300 H   0  0  0  0  0  0  0  0  0  0  0  0
   19.8209   17.2681   22.6431 H   0  0  0  0  0  0  0  0  0  0  0  0
   21.3087   18.3254   23.8997 C   0  0  0  0  0  0  0  0  0  0  0  0
   21.5633   17.5703   24.6546 H   0  0  0  0  0  0  0  0  0  0  0  0
   22.2422   18.8745   23.7243 H   0  0  0  0  0  0  0  0  0  0  0  0
   20.2675   19.2626   24.5714 C   0  0  0  0  0  0  0  0  0  0  0  0
   20.5997   19.3793   25.6132 H   0  0  0  0  0  0  0  0  0  0  0  0
   20.1680   20.7114   24.0165 C   0  0  0  0  0  0  0  0  0  0  0  0
   19.2116   21.1474   24.3332 H   0  0  0  0  0  0  0  0  0  0  0  0
   20.9387   21.3124   24.5163 H   0  0  0  0  0  0  0  0  0  0  0  0
   20.3333   20.9265   22.4906 C   0  0  0  0  0  0  0  0  0  0  0  0
   21.3802   20.7650   22.2091 H   0  0  0  0  0  0  0  0  0  0  0  0
   20.1455   21.9865   22.2727 H   0  0  0  0  0  0  0  0  0  0  0  0
   19.3803   20.0708   21.6210 C   0  0  0  0  0  0  0  0  0  0  0  0
   18.7402   20.7393   21.0296 H   0  0  0  0  0  0  0  0  0  0  0  0
   18.6879   19.4983   22.2481 H   0  0  0  0  0  0  0  0  0  0  0  0
   18.9823   18.6497   24.6163 O   0  0  0  0  0  0  0  0  0  0  0  0
   18.3890   19.2719   25.0836 H   0  0  0  0  0  0  0  0  0  0  0  0
  1  2  1  0  0  0  0
  1  3  1  0  0  0  0
  1  4  1  0  0  0  0
  4  5  1  0  0  0  0
  4  6  1  0  0  0  0
  4  7  1  0  0  0  0
  7  8  1  0  0  0  0
  7  9  1  0  0  0  0
  7 10  1  0  0  0  0
 10 11  1  0  0  0  0
 10 12  1  0  0  0  0
 10 13  1  0  0  0  0
 13 14  1  0  0  0  0
 13 15  1  0  0  0  0
 15 16  1  0  0  0  0
 15 17  1  0  0  0  0
 15 18  1  0  0  0  0
 18 19  1  0  0  0  0
 18 20  1  0  0  0  0
  1 21  1  0  0  0  0
 18 21  1  0  0  0  0
 21 22  1  0  0  0  0
 21 23  1  0  0  0  0
 13 24  1  0  0  0  0
 24 25  1  0  0  0  0
M  END
> <VM2 Rank>
115

> <Conf_Id>
1236

> <Probability>
0.00

> <Sum Probability>
100.00

> <Delta G>
5.059

> <G>
67.134

> <E>
34.614

> <-TS>
32.520

> <U+W>
14.046

> <U>
16.200

> <W>
-2.154

> <W(PB)>
-4.283

> <W(SA)>
2.129

> <Valence>
19.712

> <Coulomb>
-6.683

> <VdW>
3.171

> <VdW6>
-13.375

> <VdW12>
16.546

> <Bond>
0.548

> <Angle>
6.059

> <Pdih>
13.105

> <Idih>
0.000

> <Tether>
0.000

$$$$
VeraChem MOL file


 25 25  0  0  0  0  0  0  0  0999 V2000     
   21.0468   19.4715   20.8961 C   0  0  0  0  0  0  0  0  0  0  0  0
   20.7261   19.8191   19.9046 H   0  0  0  0  0  0  0  0  0  0  0  0
   22.1282   19.2999   20.8107 H   0  0  0  0  0  0  0  0  0  0  0  0
   20.3352   18.1174   21.1524 C   0  0  0  0  0  0  0  0  0  0  0  0
   19.2517   18.2640   21.1098 H   0  0  0  0  0  0  0  0  0  0  0  0
   20.5395   17.4686   20.2898 H   0  0  0  0  0  0  0  0  0  0  0  0
   20.7396   17.3213   22.4271 C   0  0  0  0  0  0  0  0  0  0  0  0
   21.6340   16.7344   22.1773 H   0  0  0  0  0  0  0  0  0  0  0  0
   19.9567   16.5827   22.6459 H   0  0  0  0  0  0  0  0  0  0  0  0
   21.0671   18.1167   23.7205 C   0  0  0  0  0  0  0  0  0  0  0  0
   21.4205   17.3909   24.4642 H   0  0  0  0  0  0  0  0  0  0  0  0
   21.9391   18.7529   23.5432 H   0  0  0  0  0  0  0  0  0  0  0  0
   19.9154   18.9167   24.3915 C   0  0  0  0  0  0  0  0  0  0  0  0
   19.3372   18.1926   24.9834 H   0  0  0  0  0  0  0  0  0  0  0  0
   18.8893   19.6243   23.4690 C   0  0  0  0  0  0  0  0  0  0  0  0
   18.3460   18.8648   22.9003 H   0  0  0  0  0  0  0  0  0  0  0  0
   18.1157   20.0565   24.1169 H   0  0  0  0  0  0  0  0  0  0  0  0
   19.3882   20.7629   22.5271 C   0  0  0  0  0  0  0  0  0  0  0  0
   19.3826   21.6932   23.1115 H   0  0  0  0  0  0  0  0  0  0  0  0
   18.6497   20.9126   21.7283 H   0  0  0  0  0  0  0  0  0  0  0  0
   20.8012   20.6360   21.8992 C   0  0  0  0  0  0  0  0  0  0  0  0
   21.5496   20.6269   22.6975 H   0  0  0  0  0  0  0  0  0  0  0  0
   21.0104   21.5721   21.3640 H   0  0  0  0  0  0  0  0  0  0  0  0
   20.4813   19.8761   25.2772 O   0  0  0  0  0  0  0  0  0  0  0  0
   21.0782   19.3864   25.8793 H   0  0  0  0  0  0  0  0  0  0  0  0
  1  2  1  0  0  0  0
  1  3  1  0  0  0  0
  1  4  1  0  0  0  0
  4  5  1  0  0  0  0
  4  6  1  0  0  0  0
  4  7  1  0  0  0  0
  7  8  1  0  0  0  0
  7  9  1  0  0  0  0
  7 10  1  0  0  0  0
 10 11  1  0  0  0  0
 10 12  1  0  0  0  0
 10 13  1  0  0  0  0
 13 14  1  0  0  0  0
 13 15  1  0  0  0  0
 15 16  1  0  0  0  0
 15 17  1  0  0  0  0
 15 18  1  0  0  0  0
 18 19  1  0  0  0  0
 18 20  1  0  0  0  0
  1 21  1  0  0  0  0
 18 21  1  0  0  0  0
 21 22  1  0  0  0  0
 21 23  1  0  0  0  0
 13 24  1  0  0  0  0
 24 25  1  0  0  0  0
M  END
> <VM2 Rank>
116

> <Conf_Id>
1948

> <Probability>
0.00

> <Sum Probability>
100.00

> <Delta G>
5.121

> <G>
67.196

> <E>
34.488

> <-TS>
32.708

> <U+W>
13.920

> <U>
16.068

> <W>
-2.147

> <W(PB)>
-4.261

> <W(SA)>
2.114

> <Valence>
18.913

> <Coulomb>
-6.661

> <VdW>
3.816

> <VdW6>
-13.863

> <VdW12>
17.679

> <Bond>
0.725

> <Angle>
9.703

> <Pdih>
8.485

> <Idih>
0.000

> <Tether>
0.000

$$$$
VeraChem MOL file


 25 25  0  0  0  0  0  0  0  0999 V2000     
   20.0902   19.0969   20.7535 C   0  0  0  0  0  0  0  0  0  0  0  0
   19.4678   18.2582   20.4139 H   0  0  0  0  0  0  0  0  0  0  0  0
   20.3350   19.6660   19.8463 H   0  0  0  0  0  0  0  0  0  0  0  0
   21.4264   18.5447   21.3150 C   0  0  0  0  0  0  0  0  0  0  0  0
   21.9341   18.0147   20.4976 H   0  0  0  0  0  0  0  0  0  0  0  0
   22.0995   19.3791   21.5342 H   0  0  0  0  0  0  0  0  0  0  0  0
   21.3499   17.5603   22.5180 C   0  0  0  0  0  0  0  0  0  0  0  0
   22.3357   17.5141   23.0002 H   0  0  0  0  0  0  0  0  0  0  0  0
   21.1769   16.5555   22.1092 H   0  0  0  0  0  0  0  0  0  0  0  0
   20.2626   17.8017   23.6007 C   0  0  0  0  0  0  0  0  0  0  0  0
   19.2721   17.7085   23.1460 H   0  0  0  0  0  0  0  0  0  0  0  0
   20.3098   16.9559   24.2988 H   0  0  0  0  0  0  0  0  0  0  0  0
   20.3673   19.0937   24.4588 C   0  0  0  0  0  0  0  0  0  0  0  0
   21.1054   18.8850   25.2466 H   0  0  0  0  0  0  0  0  0  0  0  0
   20.8492   20.3919   23.7609 C   0  0  0  0  0  0  0  0  0  0  0  0
   20.9395   21.1625   24.5375 H   0  0  0  0  0  0  0  0  0  0  0  0
   21.8803   20.2491   23.4268 H   0  0  0  0  0  0  0  0  0  0  0  0
   19.9792   20.9945   22.6152 C   0  0  0  0  0  0  0  0  0  0  0  0
   20.5998   21.6766   22.0190 H   0  0  0  0  0  0  0  0  0  0  0  0
   19.2151   21.6275   23.0866 H   0  0  0  0  0  0  0  0  0  0  0  0
   19.2322   20.0215   21.6653 C   0  0  0  0  0  0  0  0  0  0  0  0
   18.5974   20.6271   21.0044 H   0  0  0  0  0  0  0  0  0  0  0  0
   18.5110   19.4368   22.2447 H   0  0  0  0  0  0  0  0  0  0  0  0
   19.1069   19.3378   25.0726 O   0  0  0  0  0  0  0  0  0  0  0  0
   18.8621   18.5185   25.5494 H   0  0  0  0  0  0  0  0  0  0  0  0
  1  2  1  0  0  0  0
  1  3  1  0  0  0  0
  1  4  1  0  0  0  0
  4  5  1  0  0  0  0
  4  6  1  0  0  0  0
  4  7  1  0  0  0  0
  7  8  1  0  0  0  0
  7  9  1  0  0  0  0
  7 10  1  0  0  0  0
 10 11  1  0  0  0  0
 10 12  1  0  0  0  0
 10 13  1  0  0  0  0
 13 14  1  0  0  0  0
 13 15  1  0  0  0  0
 15 16  1  0  0  0  0
 15 17  1  0  0  0  0
 15 18  1  0  0  0  0
 18 19  1  0  0  0  0
 18 20  1  0  0  0  0
  1 21  1  0  0  0  0
 18 21  1  0  0  0  0
 21 22  1  0  0  0  0
 21 23  1  0  0  0  0
 13 24  1  0  0  0  0
 24 25  1  0  0  0  0
M  END
> <VM2 Rank>
117

> <Conf_Id>
1360

> <Probability>
0.00

> <Sum Probability>
100.00

> <Delta G>
5.128

> <G>
67.203

> <E>
34.495

> <-TS>
32.708

> <U+W>
13.928

> <U>
16.068

> <W>
-2.140

> <W(PB)>
-4.259

> <W(SA)>
2.119

> <Valence>
18.914

> <Coulomb>
-6.661

> <VdW>
3.815

> <VdW6>
-13.862

> <VdW12>
17.677

> <Bond>
0.725

> <Angle>
9.707

> <Pdih>
8.482

> <Idih>
0.000

> <Tether>
0.000

$$$$
VeraChem MOL file


 25 25  0  0  0  0  0  0  0  0999 V2000     
   20.1518   19.1411   20.7530 C   0  0  0  0  0  0  0  0  0  0  0  0
   19.4487   18.8723   19.9530 H   0  0  0  0  0  0  0  0  0  0  0  0
   21.0624   19.4838   20.2433 H   0  0  0  0  0  0  0  0  0  0  0  0
   20.4658   17.8541   21.5573 C   0  0  0  0  0  0  0  0  0  0  0  0
   19.5595   17.4619   22.0332 H   0  0  0  0  0  0  0  0  0  0  0  0
   20.7593   17.0858   20.8291 H   0  0  0  0  0  0  0  0  0  0  0  0
   21.6239   17.9966   22.5771 C   0  0  0  0  0  0  0  0  0  0  0  0
   22.2992   18.8061   22.2795 H   0  0  0  0  0  0  0  0  0  0  0  0
   22.2435   17.0924   22.5056 H   0  0  0  0  0  0  0  0  0  0  0  0
   21.2198   18.1434   24.0709 C   0  0  0  0  0  0  0  0  0  0  0  0
   20.9308   17.1510   24.4403 H   0  0  0  0  0  0  0  0  0  0  0  0
   22.1243   18.4045   24.6353 H   0  0  0  0  0  0  0  0  0  0  0  0
   20.1014   19.1384   24.4836 C   0  0  0  0  0  0  0  0  0  0  0  0
   20.1319   19.1545   25.5827 H   0  0  0  0  0  0  0  0  0  0  0  0
   20.2628   20.6233   24.0612 C   0  0  0  0  0  0  0  0  0  0  0  0
   19.3656   21.1557   24.4032 H   0  0  0  0  0  0  0  0  0  0  0  0
   21.0909   21.0508   24.6407 H   0  0  0  0  0  0  0  0  0  0  0  0
   20.4919   20.9854   22.5673 C   0  0  0  0  0  0  0  0  0  0  0  0
   21.5361   20.8161   22.2838 H   0  0  0  0  0  0  0  0  0  0  0  0
   20.3636   22.0731   22.4831 H   0  0  0  0  0  0  0  0  0  0  0  0
   19.5335   20.3189   21.5481 C   0  0  0  0  0  0  0  0  0  0  0  0
   19.2443   21.0843   20.8153 H   0  0  0  0  0  0  0  0  0  0  0  0
   18.5950   20.0146   22.0271 H   0  0  0  0  0  0  0  0  0  0  0  0
   18.8133   18.6418   24.1414 O   0  0  0  0  0  0  0  0  0  0  0  0
   18.8073   17.6934   24.3789 H   0  0  0  0  0  0  0  0  0  0  0  0
  1  2  1  0  0  0  0
  1  3  1  0  0  0  0
  1  4  1  0  0  0  0
  4  5  1  0  0  0  0
  4  6  1  0  0  0  0
  4  7  1  0  0  0  0
  7  8  1  0  0  0  0
  7  9  1  0  0  0  0
  7 10  1  0  0  0  0
 10 11  1  0  0  0  0
 10 12  1  0  0  0  0
 10 13  1  0  0  0  0
 13 14  1  0  0  0  0
 13 15  1  0  0  0  0
 15 16  1  0  0  0  0
 15 17  1  0  0  0  0
 15 18  1  0  0  0  0
 18 19  1  0  0  0  0
 18 20  1  0  0  0  0
  1 21  1  0  0  0  0
 18 21  1  0  0  0  0
 21 22  1  0  0  0  0
 21 23  1  0  0  0  0
 13 24  1  0  0  0  0
 24 25  1  0  0  0  0
M  END
> <VM2 Rank>
118

> <Conf_Id>
1299

> <Probability>
0.00

> <Sum Probability>
100.00

> <Delta G>
5.540

> <G>
67.615

> <E>
34.890

> <-TS>
32.725

> <U+W>
14.323

> <U>
16.213

> <W>
-1.891

> <W(PB)>
-4.002

> <W(SA)>
2.111

> <Valence>
19.752

> <Coulomb>
-6.007

> <VdW>
2.468

> <VdW6>
-13.673

> <VdW12>
16.141

> <Bond>
0.503

> <Angle>
8.543

> <Pdih>
10.706

> <Idih>
0.000

> <Tether>
0.000

$$$$
VeraChem MOL file


 25 25  0  0  0  0  0  0  0  0999 V2000     
   20.1513   19.1423   20.7530 C   0  0  0  0  0  0  0  0  0  0  0  0
   19.4493   18.8708   19.9530 H   0  0  0  0  0  0  0  0  0  0  0  0
   21.0609   19.4878   20.2433 H   0  0  0  0  0  0  0  0  0  0  0  0
   20.4697   17.8567   21.5576 C   0  0  0  0  0  0  0  0  0  0  0  0
   19.5649   17.4638   22.0369 H   0  0  0  0  0  0  0  0  0  0  0  0
   20.7640   17.0876   20.8307 H   0  0  0  0  0  0  0  0  0  0  0  0
   21.6262   18.0021   22.5788 C   0  0  0  0  0  0  0  0  0  0  0  0
   22.2949   18.8205   22.2916 H   0  0  0  0  0  0  0  0  0  0  0  0
   22.2532   17.1034   22.5023 H   0  0  0  0  0  0  0  0  0  0  0  0
   21.2104   18.1306   24.0709 C   0  0  0  0  0  0  0  0  0  0  0  0
   20.8927   17.1389   24.4187 H   0  0  0  0  0  0  0  0  0  0  0  0
   22.1119   18.3652   24.6511 H   0  0  0  0  0  0  0  0  0  0  0  0
   20.1023   19.1360   24.4836 C   0  0  0  0  0  0  0  0  0  0  0  0
   20.1329   19.1516   25.5827 H   0  0  0  0  0  0  0  0  0  0  0  0
   20.2782   20.6199   24.0614 C   0  0  0  0  0  0  0  0  0  0  0  0
   19.4019   21.1721   24.4248 H   0  0  0  0  0  0  0  0  0  0  0  0
   21.1263   21.0295   24.6252 H   0  0  0  0  0  0  0  0  0  0  0  0
   20.4865   20.9880   22.5656 C   0  0  0  0  0  0  0  0  0  0  0  0
   20.3491   22.0750   22.4864 H   0  0  0  0  0  0  0  0  0  0  0  0
   21.5298   20.8297   22.2717 H   0  0  0  0  0  0  0  0  0  0  0  0
   19.5289   20.3183   21.5478 C   0  0  0  0  0  0  0  0  0  0  0  0
   19.2398   21.0826   20.8137 H   0  0  0  0  0  0  0  0  0  0  0  0
   18.5898   20.0125   22.0233 H   0  0  0  0  0  0  0  0  0  0  0  0
   18.8105   18.6491   24.1413 O   0  0  0  0  0  0  0  0  0  0  0  0
   18.1753   19.3555   24.3724 H   0  0  0  0  0  0  0  0  0  0  0  0
  1  2  1  0  0  0  0
  1  3  1  0  0  0  0
  1  4  1  0  0  0  0
  4  5  1  0  0  0  0
  4  6  1  0  0  0  0
  4  7  1  0  0  0  0
  7  8  1  0  0  0  0
  7  9  1  0  0  0  0
  7 10  1  0  0  0  0
 10 11  1  0  0  0  0
 10 12  1  0  0  0  0
 10 13  1  0  0  0  0
 13 14  1  0  0  0  0
 13 15  1  0  0  0  0
 15 16  1  0  0  0  0
 15 17  1  0  0  0  0
 15 18  1  0  0  0  0
 18 19  1  0  0  0  0
 18 20  1  0  0  0  0
  1 21  1  0  0  0  0
 18 21  1  0  0  0  0
 21 22  1  0  0  0  0
 21 23  1  0  0  0  0
 13 24  1  0  0  0  0
 24 25  1  0  0  0  0
M  END
> <VM2 Rank>
119

> <Conf_Id>
211

> <Probability>
0.00

> <Sum Probability>
100.00

> <Delta G>
5.551

> <G>
67.626

> <E>
34.901

> <-TS>
32.725

> <U+W>
14.333

> <U>
16.213

> <W>
-1.880

> <W(PB)>
-3.985

> <W(SA)>
2.105

> <Valence>
19.752

> <Coulomb>
-6.007

> <VdW>
2.468

> <VdW6>
-13.673

> <VdW12>
16.142

> <Bond>
0.503

> <Angle>
8.543

> <Pdih>
10.706

> <Idih>
0.000

> <Tether>
0.000

$$$$
VeraChem MOL file


 25 25  0  0  0  0  0  0  0  0999 V2000     
   19.4937   18.8211   21.2910 C   0  0  0  0  0  0  0  0  0  0  0  0
   18.8587   18.2614   21.9842 H   0  0  0  0  0  0  0  0  0  0  0  0
   19.0021   18.6776   20.3190 H   0  0  0  0  0  0  0  0  0  0  0  0
   20.8847   18.1413   21.2174 C   0  0  0  0  0  0  0  0  0  0  0  0
   21.4977   18.6402   20.4546 H   0  0  0  0  0  0  0  0  0  0  0  0
   20.7231   17.1216   20.8419 H   0  0  0  0  0  0  0  0  0  0  0  0
   21.7012   18.0279   22.5372 C   0  0  0  0  0  0  0  0  0  0  0  0
   22.4096   18.8576   22.6351 H   0  0  0  0  0  0  0  0  0  0  0  0
   22.3466   17.1445   22.4385 H   0  0  0  0  0  0  0  0  0  0  0  0
   20.8902   17.8742   23.8524 C   0  0  0  0  0  0  0  0  0  0  0  0
   20.1600   17.0621   23.7391 H   0  0  0  0  0  0  0  0  0  0  0  0
   21.5945   17.5137   24.6133 H   0  0  0  0  0  0  0  0  0  0  0  0
   20.1933   19.1300   24.4588 C   0  0  0  0  0  0  0  0  0  0  0  0
   20.4080   19.0917   25.5365 H   0  0  0  0  0  0  0  0  0  0  0  0
   20.6506   20.5378   23.9901 C   0  0  0  0  0  0  0  0  0  0  0  0
   20.0402   21.2668   24.5398 H   0  0  0  0  0  0  0  0  0  0  0  0
   21.6747   20.7012   24.3495 H   0  0  0  0  0  0  0  0  0  0  0  0
   20.6007   20.9275   22.4798 C   0  0  0  0  0  0  0  0  0  0  0  0
   21.5650   20.7232   22.0018 H   0  0  0  0  0  0  0  0  0  0  0  0
   20.5218   22.0224   22.4365 H   0  0  0  0  0  0  0  0  0  0  0  0
   19.4655   20.3467   21.5972 C   0  0  0  0  0  0  0  0  0  0  0  0
   19.5234   20.8682   20.6318 H   0  0  0  0  0  0  0  0  0  0  0  0
   18.4880   20.6260   22.0125 H   0  0  0  0  0  0  0  0  0  0  0  0
   18.7840   19.0364   24.3361 O   0  0  0  0  0  0  0  0  0  0  0  0
   18.6074   19.2869   23.4070 H   0  0  0  0  0  0  0  0  0  0  0  0
  1  2  1  0  0  0  0
  1  3  1  0  0  0  0
  1  4  1  0  0  0  0
  4  5  1  0  0  0  0
  4  6  1  0  0  0  0
  4  7  1  0  0  0  0
  7  8  1  0  0  0  0
  7  9  1  0  0  0  0
  7 10  1  0  0  0  0
 10 11  1  0  0  0  0
 10 12  1  0  0  0  0
 10 13  1  0  0  0  0
 13 14  1  0  0  0  0
 13 15  1  0  0  0  0
 15 16  1  0  0  0  0
 15 17  1  0  0  0  0
 15 18  1  0  0  0  0
 18 19  1  0  0  0  0
 18 20  1  0  0  0  0
  1 21  1  0  0  0  0
 18 21  1  0  0  0  0
 21 22  1  0  0  0  0
 21 23  1  0  0  0  0
 13 24  1  0  0  0  0
 24 25  1  0  0  0  0
M  END
> <VM2 Rank>
120

> <Conf_Id>
999

> <Probability>
0.00

> <Sum Probability>
100.00

> <Delta G>
7.422

> <G>
69.498

> <E>
36.284

> <-TS>
33.214

> <U+W>
15.716

> <U>
16.593

> <W>
-0.877

> <W(PB)>
-2.981

> <W(SA)>
2.104

> <Valence>
22.340

> <Coulomb>
-9.762

> <VdW>
4.015

> <VdW6>
-15.368

> <VdW12>
19.383

> <Bond>
0.782

> <Angle>
10.779

> <Pdih>
10.779

> <Idih>
0.000

> <Tether>
0.000

$$$$
VeraChem MOL file


 25 25  0  0  0  0  0  0  0  0999 V2000     
   19.4662   18.9624   21.2773 C   0  0  0  0  0  0  0  0  0  0  0  0
   19.0186   18.7453   20.2977 H   0  0  0  0  0  0  0  0  0  0  0  0
   18.6088   18.9581   21.9570 H   0  0  0  0  0  0  0  0  0  0  0  0
   20.4528   17.8020   21.5967 C   0  0  0  0  0  0  0  0  0  0  0  0
   19.9007   16.9434   22.0017 H   0  0  0  0  0  0  0  0  0  0  0  0
   20.8575   17.4523   20.6368 H   0  0  0  0  0  0  0  0  0  0  0  0
   21.6733   18.1193   22.4993 C   0  0  0  0  0  0  0  0  0  0  0  0
   22.2663   18.9132   22.0322 H   0  0  0  0  0  0  0  0  0  0  0  0
   22.3416   17.2481   22.4648 H   0  0  0  0  0  0  0  0  0  0  0  0
   21.4281   18.4408   24.0065 C   0  0  0  0  0  0  0  0  0  0  0  0
   21.4469   17.4894   24.5547 H   0  0  0  0  0  0  0  0  0  0  0  0
   22.2968   18.9976   24.3808 H   0  0  0  0  0  0  0  0  0  0  0  0
   20.1444   19.1893   24.4566 C   0  0  0  0  0  0  0  0  0  0  0  0
   20.2625   19.3583   25.5366 H   0  0  0  0  0  0  0  0  0  0  0  0
   19.8417   20.5924   23.8482 C   0  0  0  0  0  0  0  0  0  0  0  0
   18.7584   20.7153   23.7180 H   0  0  0  0  0  0  0  0  0  0  0  0
   20.1171   21.3280   24.6150 H   0  0  0  0  0  0  0  0  0  0  0  0
   20.5708   21.0183   22.5451 C   0  0  0  0  0  0  0  0  0  0  0  0
   21.6498   20.8678   22.6598 H   0  0  0  0  0  0  0  0  0  0  0  0
   20.4687   22.1077   22.4470 H   0  0  0  0  0  0  0  0  0  0  0  0
   20.0563   20.3943   21.2158 C   0  0  0  0  0  0  0  0  0  0  0  0
   19.2646   21.0505   20.8291 H   0  0  0  0  0  0  0  0  0  0  0  0
   20.8579   20.4295   20.4656 H   0  0  0  0  0  0  0  0  0  0  0  0
   19.0303   18.3242   24.3146 O   0  0  0  0  0  0  0  0  0  0  0  0
   19.0791   18.0214   23.3855 H   0  0  0  0  0  0  0  0  0  0  0  0
  1  2  1  0  0  0  0
  1  3  1  0  0  0  0
  1  4  1  0  0  0  0
  4  5  1  0  0  0  0
  4  6  1  0  0  0  0
  4  7  1  0  0  0  0
  7  8  1  0  0  0  0
  7  9  1  0  0  0  0
  7 10  1  0  0  0  0
 10 11  1  0  0  0  0
 10 12  1  0  0  0  0
 10 13  1  0  0  0  0
 13 14  1  0  0  0  0
 13 15  1  0  0  0  0
 15 16  1  0  0  0  0
 15 17  1  0  0  0  0
 15 18  1  0  0  0  0
 18 19  1  0  0  0  0
 18 20  1  0  0  0  0
  1 21  1  0  0  0  0
 18 21  1  0  0  0  0
 21 22  1  0  0  0  0
 21 23  1  0  0  0  0
 13 24  1  0  0  0  0
 24 25  1  0  0  0  0
M  END
> <VM2 Rank>
121

> <Conf_Id>
1828

> <Probability>
0.00

> <Sum Probability>
100.00

> <Delta G>
7.438

> <G>
69.513

> <E>
36.299

> <-TS>
33.214

> <U+W>
15.732

> <U>
16.593

> <W>
-0.862

> <W(PB)>
-2.960

> <W(SA)>
2.098

> <Valence>
22.340

> <Coulomb>
-9.762

> <VdW>
4.015

> <VdW6>
-15.368

> <VdW12>
19.383

> <Bond>
0.782

> <Angle>
10.779

> <Pdih>
10.779

> <Idih>
0.000

> <Tether>
0.000

$$$$
VeraChem MOL file


 25 25  0  0  0  0  0  0  0  0999 V2000     
   19.4858   18.8201   21.3050 C   0  0  0  0  0  0  0  0  0  0  0  0
   18.9665   18.6558   20.3513 H   0  0  0  0  0  0  0  0  0  0  0  0
   18.8674   18.2884   22.0349 H   0  0  0  0  0  0  0  0  0  0  0  0
   20.8742   18.1354   21.2161 C   0  0  0  0  0  0  0  0  0  0  0  0
   20.7037   17.1134   20.8514 H   0  0  0  0  0  0  0  0  0  0  0  0
   21.4787   18.6269   20.4420 H   0  0  0  0  0  0  0  0  0  0  0  0
   21.7042   18.0291   22.5283 C   0  0  0  0  0  0  0  0  0  0  0  0
   22.4106   18.8612   22.6181 H   0  0  0  0  0  0  0  0  0  0  0  0
   22.3503   17.1465   22.4279 H   0  0  0  0  0  0  0  0  0  0  0  0
   20.9014   17.8792   23.8493 C   0  0  0  0  0  0  0  0  0  0  0  0
   20.1698   17.0678   23.7401 H   0  0  0  0  0  0  0  0  0  0  0  0
   21.6088   17.5209   24.6082 H   0  0  0  0  0  0  0  0  0  0  0  0
   20.2026   19.1363   24.4529 C   0  0  0  0  0  0  0  0  0  0  0  0
   20.4530   19.1141   25.5234 H   0  0  0  0  0  0  0  0  0  0  0  0
   20.6445   20.5479   23.9718 C   0  0  0  0  0  0  0  0  0  0  0  0
   20.0316   21.2789   24.5149 H   0  0  0  0  0  0  0  0  0  0  0  0
   21.6671   20.7208   24.3311 H   0  0  0  0  0  0  0  0  0  0  0  0
   20.6017   20.9318   22.4606 C   0  0  0  0  0  0  0  0  0  0  0  0
   21.5646   20.7202   21.9834 H   0  0  0  0  0  0  0  0  0  0  0  0
   20.5258   22.0265   22.4110 H   0  0  0  0  0  0  0  0  0  0  0  0
   19.4636   20.3484   21.5870 C   0  0  0  0  0  0  0  0  0  0  0  0
   19.5079   20.8619   20.6170 H   0  0  0  0  0  0  0  0  0  0  0  0
   18.4917   20.6207   22.0197 H   0  0  0  0  0  0  0  0  0  0  0  0
   18.7861   19.0149   24.3891 O   0  0  0  0  0  0  0  0  0  0  0  0
   18.4207   19.8843   24.6479 H   0  0  0  0  0  0  0  0  0  0  0  0
  1  2  1  0  0  0  0
  1  3  1  0  0  0  0
  1  4  1  0  0  0  0
  4  5  1  0  0  0  0
  4  6  1  0  0  0  0
  4  7  1  0  0  0  0
  7  8  1  0  0  0  0
  7  9  1  0  0  0  0
  7 10  1  0  0  0  0
 10 11  1  0  0  0  0
 10 12  1  0  0  0  0
 10 13  1  0  0  0  0
 13 14  1  0  0  0  0
 13 15  1  0  0  0  0
 15 16  1  0  0  0  0
 15 17  1  0  0  0  0
 15 18  1  0  0  0  0
 18 19  1  0  0  0  0
 18 20  1  0  0  0  0
  1 21  1  0  0  0  0
 18 21  1  0  0  0  0
 21 22  1  0  0  0  0
 21 23  1  0  0  0  0
 13 24  1  0  0  0  0
 24 25  1  0  0  0  0
M  END
> <VM2 Rank>
122

> <Conf_Id>
307

> <Probability>
0.00

> <Sum Probability>
100.00

> <Delta G>
8.876

> <G>
70.951

> <E>
38.323

> <-TS>
32.628

> <U+W>
17.756

> <U>
19.520

> <W>
-1.765

> <W(PB)>
-3.862

> <W(SA)>
2.098

> <Valence>
21.920

> <Coulomb>
-6.404

> <VdW>
4.004

> <VdW6>
-14.821

> <VdW12>
18.825

> <Bond>
0.770

> <Angle>
10.565

> <Pdih>
10.584

> <Idih>
0.000

> <Tether>
0.000

$$$$
VeraChem MOL file


 25 25  0  0  0  0  0  0  0  0999 V2000     
   19.4840   18.8201   21.3056 C   0  0  0  0  0  0  0  0  0  0  0  0
   18.8668   18.2935   22.0398 H   0  0  0  0  0  0  0  0  0  0  0  0
   18.9610   18.6540   20.3542 H   0  0  0  0  0  0  0  0  0  0  0  0
   20.8711   18.1332   21.2142 C   0  0  0  0  0  0  0  0  0  0  0  0
   20.6984   17.1104   20.8524 H   0  0  0  0  0  0  0  0  0  0  0  0
   21.4741   18.6221   20.4373 H   0  0  0  0  0  0  0  0  0  0  0  0
   21.7042   18.0296   22.5245 C   0  0  0  0  0  0  0  0  0  0  0  0
   22.4107   18.8618   22.6128 H   0  0  0  0  0  0  0  0  0  0  0  0
   22.3509   17.1474   22.4235 H   0  0  0  0  0  0  0  0  0  0  0  0
   20.9035   17.8801   23.8459 C   0  0  0  0  0  0  0  0  0  0  0  0
   20.1771   17.0646   23.7355 H   0  0  0  0  0  0  0  0  0  0  0  0
   21.6144   17.5232   24.6025 H   0  0  0  0  0  0  0  0  0  0  0  0
   20.2059   19.1372   24.4533 C   0  0  0  0  0  0  0  0  0  0  0  0
   20.4679   19.1176   25.5211 H   0  0  0  0  0  0  0  0  0  0  0  0
   20.6363   20.5516   23.9695 C   0  0  0  0  0  0  0  0  0  0  0  0
   19.9978   21.2701   24.5000 H   0  0  0  0  0  0  0  0  0  0  0  0
   21.6499   20.7443   24.3434 H   0  0  0  0  0  0  0  0  0  0  0  0
   20.6049   20.9304   22.4566 C   0  0  0  0  0  0  0  0  0  0  0  0
   21.5688   20.7157   21.9835 H   0  0  0  0  0  0  0  0  0  0  0  0
   20.5313   22.0251   22.4043 H   0  0  0  0  0  0  0  0  0  0  0  0
   19.4658   20.3487   21.5837 C   0  0  0  0  0  0  0  0  0  0  0  0
   19.5084   20.8614   20.6133 H   0  0  0  0  0  0  0  0  0  0  0  0
   18.4960   20.6221   22.0212 H   0  0  0  0  0  0  0  0  0  0  0  0
   18.7883   19.0122   24.4068 O   0  0  0  0  0  0  0  0  0  0  0  0
   18.5689   18.1411   24.7941 H   0  0  0  0  0  0  0  0  0  0  0  0
  1  2  1  0  0  0  0
  1  3  1  0  0  0  0
  1  4  1  0  0  0  0
  4  5  1  0  0  0  0
  4  6  1  0  0  0  0
  4  7  1  0  0  0  0
  7  8  1  0  0  0  0
  7  9  1  0  0  0  0
  7 10  1  0  0  0  0
 10 11  1  0  0  0  0
 10 12  1  0  0  0  0
 10 13  1  0  0  0  0
 13 14  1  0  0  0  0
 13 15  1  0  0  0  0
 15 16  1  0  0  0  0
 15 17  1  0  0  0  0
 15 18  1  0  0  0  0
 18 19  1  0  0  0  0
 18 20  1  0  0  0  0
  1 21  1  0  0  0  0
 18 21  1  0  0  0  0
 21 22  1  0  0  0  0
 21 23  1  0  0  0  0
 13 24  1  0  0  0  0
 24 25  1  0  0  0  0
M  END
> <VM2 Rank>
123

> <Conf_Id>
1688

> <Probability>
0.00

> <Sum Probability>
100.00

> <Delta G>
9.432

> <G>
71.508

> <E>
38.704

> <-TS>
32.803

> <U+W>
18.137

> <U>
20.127

> <W>
-1.991

> <W(PB)>
-4.096

> <W(SA)>
2.106

> <Valence>
21.807

> <Coulomb>
-5.640

> <VdW>
3.961

> <VdW6>
-14.712

> <VdW12>
18.672

> <Bond>
0.774

> <Angle>
10.671

> <Pdih>
10.362

> <Idih>
0.000

> <Tether>
0.000

$$$$
