VeraChem MOL file


 26 25  0  0  0  0  0  0  0  0999 V2000     
   19.9837   18.6238   26.4861 N   0  3  0  0  0  0  0  0  0  0  0  0
   20.8629   18.0855   26.5333 H   0  0  0  0  0  0  0  0  0  0  0  0
   19.2305   17.9186   26.4753 H   0  0  0  0  0  0  0  0  0  0  0  0
   19.9443   19.4507   25.2166 C   0  0  0  0  0  0  0  0  0  0  0  0
   20.7598   20.1768   25.2639 H   0  0  0  0  0  0  0  0  0  0  0  0
   18.9976   19.9967   25.2014 H   0  0  0  0  0  0  0  0  0  0  0  0
   20.0759   18.6066   23.9359 C   0  0  0  0  0  0  0  0  0  0  0  0
   21.0206   18.0471   23.9630 H   0  0  0  0  0  0  0  0  0  0  0  0
   19.2643   17.8676   23.9008 H   0  0  0  0  0  0  0  0  0  0  0  0
   20.0306   19.4900   22.6695 C   0  0  0  0  0  0  0  0  0  0  0  0
   20.8408   20.2314   22.7110 H   0  0  0  0  0  0  0  0  0  0  0  0
   19.0865   20.0524   22.6490 H   0  0  0  0  0  0  0  0  0  0  0  0
   20.1618   18.6528   21.3767 C   0  0  0  0  0  0  0  0  0  0  0  0
   21.1057   18.0906   21.3970 H   0  0  0  0  0  0  0  0  0  0  0  0
   19.3517   17.9115   21.3349 H   0  0  0  0  0  0  0  0  0  0  0  0
   20.1163   19.5367   20.1103 C   0  0  0  0  0  0  0  0  0  0  0  0
   20.9264   20.2786   20.1461 H   0  0  0  0  0  0  0  0  0  0  0  0
   19.1726   20.0995   20.0840 H   0  0  0  0  0  0  0  0  0  0  0  0
   20.2476   18.6974   18.8214 C   0  0  0  0  0  0  0  0  0  0  0  0
   20.2132   19.3421   17.9337 H   0  0  0  0  0  0  0  0  0  0  0  0
   19.4308   17.9684   18.7399 H   0  0  0  0  0  0  0  0  0  0  0  0
   21.1984   18.1489   18.8025 H   0  0  0  0  0  0  0  0  0  0  0  0
   19.8478   19.5320   27.7005 C   0  0  0  0  0  0  0  0  0  0  0  0
   18.8963   20.0654   27.6453 H   0  0  0  0  0  0  0  0  0  0  0  0
   19.8778   18.9241   28.6075 H   0  0  0  0  0  0  0  0  0  0  0  0
   20.6732   20.2472   27.7083 H   0  0  0  0  0  0  0  0  0  0  0  0
  1  2  1  0  0  0  0
  1  3  1  0  0  0  0
  1  4  1  0  0  0  0
  4  5  1  0  0  0  0
  4  6  1  0  0  0  0
  4  7  1  0  0  0  0
  7  8  1  0  0  0  0
  7  9  1  0  0  0  0
  7 10  1  0  0  0  0
 10 11  1  0  0  0  0
 10 12  1  0  0  0  0
 10 13  1  0  0  0  0
 13 14  1  0  0  0  0
 13 15  1  0  0  0  0
 13 16  1  0  0  0  0
 16 17  1  0  0  0  0
 16 18  1  0  0  0  0
 16 19  1  0  0  0  0
 19 20  1  0  0  0  0
 19 21  1  0  0  0  0
 19 22  1  0  0  0  0
  1 23  1  0  0  0  0
 23 24  1  0  0  0  0
 23 25  1  0  0  0  0
 23 26  1  0  0  0  0
M  END
> <VConfSearch Rank>
1

> <Conf_Id>
11

> <Delta U+W>
0.000

> <U+W>
21.842

> <U>
70.357

> <W>
-48.515

> <W(PB)>
-50.856

> <W(SA)>
2.341

> <Valence>
1.714

> <Coulomb>
68.480

> <VdW>
0.163

> <VdW6>
-5.268

> <VdW12>
5.431

> <Bond>
0.126

> <Angle>
0.350

> <Pdih>
1.238

> <Idih>
0.000

> <Tether>
0.000

$$$$
VeraChem MOL file


 26 25  0  0  0  0  0  0  0  0999 V2000     
   20.3923   19.0035   26.6222 N   0  3  0  0  0  0  0  0  0  0  0  0
   20.8629   19.5627   27.3515 H   0  0  0  0  0  0  0  0  0  0  0  0
   20.8762   18.0924   26.6321 H   0  0  0  0  0  0  0  0  0  0  0  0
   20.5688   19.6776   25.2718 C   0  0  0  0  0  0  0  0  0  0  0  0
   21.6302   19.9157   25.1643 H   0  0  0  0  0  0  0  0  0  0  0  0
   20.0108   20.6172   25.2890 H   0  0  0  0  0  0  0  0  0  0  0  0
   20.1225   18.8244   24.0671 C   0  0  0  0  0  0  0  0  0  0  0  0
   20.6518   17.8626   24.0861 H   0  0  0  0  0  0  0  0  0  0  0  0
   19.0501   18.6036   24.1455 H   0  0  0  0  0  0  0  0  0  0  0  0
   20.4032   19.5463   22.7305 C   0  0  0  0  0  0  0  0  0  0  0  0
   21.4766   19.7690   22.6529 H   0  0  0  0  0  0  0  0  0  0  0  0
   19.8771   20.5110   22.7181 H   0  0  0  0  0  0  0  0  0  0  0  0
   19.9616   18.7009   21.5141 C   0  0  0  0  0  0  0  0  0  0  0  0
   20.4875   17.7361   21.5264 H   0  0  0  0  0  0  0  0  0  0  0  0
   18.8882   18.4783   21.5913 H   0  0  0  0  0  0  0  0  0  0  0  0
   20.2425   19.4231   20.1774 C   0  0  0  0  0  0  0  0  0  0  0  0
   21.3156   19.6458   20.0942 H   0  0  0  0  0  0  0  0  0  0  0  0
   19.7166   20.3880   20.1591 H   0  0  0  0  0  0  0  0  0  0  0  0
   19.8002   18.5761   18.9651 C   0  0  0  0  0  0  0  0  0  0  0  0
   20.0076   19.1052   18.0260 H   0  0  0  0  0  0  0  0  0  0  0  0
   18.7233   18.3657   19.0021 H   0  0  0  0  0  0  0  0  0  0  0  0
   20.3349   17.6177   18.9367 H   0  0  0  0  0  0  0  0  0  0  0  0
   18.9169   18.8381   26.9688 C   0  0  0  0  0  0  0  0  0  0  0  0
   18.4413   18.1921   26.2282 H   0  0  0  0  0  0  0  0  0  0  0  0
   18.8313   18.3855   27.9593 H   0  0  0  0  0  0  0  0  0  0  0  0
   18.4362   19.8188   26.9690 H   0  0  0  0  0  0  0  0  0  0  0  0
  1  2  1  0  0  0  0
  1  3  1  0  0  0  0
  1  4  1  0  0  0  0
  4  5  1  0  0  0  0
  4  6  1  0  0  0  0
  4  7  1  0  0  0  0
  7  8  1  0  0  0  0
  7  9  1  0  0  0  0
  7 10  1  0  0  0  0
 10 11  1  0  0  0  0
 10 12  1  0  0  0  0
 10 13  1  0  0  0  0
 13 14  1  0  0  0  0
 13 15  1  0  0  0  0
 13 16  1  0  0  0  0
 16 17  1  0  0  0  0
 16 18  1  0  0  0  0
 16 19  1  0  0  0  0
 19 20  1  0  0  0  0
 19 21  1  0  0  0  0
 19 22  1  0  0  0  0
  1 23  1  0  0  0  0
 23 24  1  0  0  0  0
 23 25  1  0  0  0  0
 23 26  1  0  0  0  0
M  END
> <VConfSearch Rank>
2

> <Conf_Id>
102

> <Delta U+W>
0.121

> <U+W>
21.963

> <U>
70.745

> <W>
-48.782

> <W(PB)>
-51.111

> <W(SA)>
2.329

> <Valence>
1.993

> <Coulomb>
68.323

> <VdW>
0.429

> <VdW6>
-5.973

> <VdW12>
6.402

> <Bond>
0.161

> <Angle>
0.472

> <Pdih>
1.360

> <Idih>
0.000

> <Tether>
0.000

$$$$
VeraChem MOL file


 26 25  0  0  0  0  0  0  0  0999 V2000     
   19.4983   18.9124   26.5906 N   0  3  0  0  0  0  0  0  0  0  0  0
   19.2085   17.9224   26.5732 H   0  0  0  0  0  0  0  0  0  0  0  0
   18.8748   19.3602   27.2811 H   0  0  0  0  0  0  0  0  0  0  0  0
   19.2845   19.5467   25.2263 C   0  0  0  0  0  0  0  0  0  0  0  0
   19.6390   20.5793   25.2758 H   0  0  0  0  0  0  0  0  0  0  0  0
   18.2071   19.5666   25.0431 H   0  0  0  0  0  0  0  0  0  0  0  0
   19.9769   18.8096   24.0619 C   0  0  0  0  0  0  0  0  0  0  0  0
   21.0636   18.8090   24.2168 H   0  0  0  0  0  0  0  0  0  0  0  0
   19.6524   17.7606   24.0507 H   0  0  0  0  0  0  0  0  0  0  0  0
   19.6507   19.4695   22.7038 C   0  0  0  0  0  0  0  0  0  0  0  0
   19.9710   20.5206   22.7215 H   0  0  0  0  0  0  0  0  0  0  0  0
   18.5625   19.4717   22.5497 H   0  0  0  0  0  0  0  0  0  0  0  0
   20.3379   18.7393   21.5274 C   0  0  0  0  0  0  0  0  0  0  0  0
   21.4260   18.7373   21.6812 H   0  0  0  0  0  0  0  0  0  0  0  0
   20.0179   17.6882   21.5099 H   0  0  0  0  0  0  0  0  0  0  0  0
   20.0113   19.3995   20.1692 C   0  0  0  0  0  0  0  0  0  0  0  0
   20.3316   20.4508   20.1809 H   0  0  0  0  0  0  0  0  0  0  0  0
   18.9239   19.4016   20.0094 H   0  0  0  0  0  0  0  0  0  0  0  0
   20.6995   18.6678   18.9970 C   0  0  0  0  0  0  0  0  0  0  0  0
   21.7913   18.6790   19.1109 H   0  0  0  0  0  0  0  0  0  0  0  0
   20.4557   19.1508   18.0419 H   0  0  0  0  0  0  0  0  0  0  0  0
   20.3726   17.6214   18.9382 H   0  0  0  0  0  0  0  0  0  0  0  0
   20.9489   19.0452   27.0407 C   0  0  0  0  0  0  0  0  0  0  0  0
   21.2209   20.1027   27.0674 H   0  0  0  0  0  0  0  0  0  0  0  0
   21.0544   18.6122   28.0380 H   0  0  0  0  0  0  0  0  0  0  0  0
   21.5955   18.5135   26.3398 H   0  0  0  0  0  0  0  0  0  0  0  0
  1  2  1  0  0  0  0
  1  3  1  0  0  0  0
  1  4  1  0  0  0  0
  4  5  1  0  0  0  0
  4  6  1  0  0  0  0
  4  7  1  0  0  0  0
  7  8  1  0  0  0  0
  7  9  1  0  0  0  0
  7 10  1  0  0  0  0
 10 11  1  0  0  0  0
 10 12  1  0  0  0  0
 10 13  1  0  0  0  0
 13 14  1  0  0  0  0
 13 15  1  0  0  0  0
 13 16  1  0  0  0  0
 16 17  1  0  0  0  0
 16 18  1  0  0  0  0
 16 19  1  0  0  0  0
 19 20  1  0  0  0  0
 19 21  1  0  0  0  0
 19 22  1  0  0  0  0
  1 23  1  0  0  0  0
 23 24  1  0  0  0  0
 23 25  1  0  0  0  0
 23 26  1  0  0  0  0
M  END
> <VConfSearch Rank>
3

> <Conf_Id>
37

> <Delta U+W>
0.125

> <U+W>
21.967

> <U>
70.745

> <W>
-48.778

> <W(PB)>
-51.115

> <W(SA)>
2.337

> <Valence>
1.993

> <Coulomb>
68.323

> <VdW>
0.429

> <VdW6>
-5.973

> <VdW12>
6.403

> <Bond>
0.161

> <Angle>
0.472

> <Pdih>
1.360

> <Idih>
0.000

> <Tether>
0.000

$$$$
VeraChem MOL file


 26 25  0  0  0  0  0  0  0  0999 V2000     
   19.9247   18.7425   26.3021 N   0  3  0  0  0  0  0  0  0  0  0  0
   20.8232   18.3819   26.6591 H   0  0  0  0  0  0  0  0  0  0  0  0
   19.2828   17.9346   26.3084 H   0  0  0  0  0  0  0  0  0  0  0  0
   20.0947   19.2645   24.8896 C   0  0  0  0  0  0  0  0  0  0  0  0
   20.7873   20.1092   24.9254 H   0  0  0  0  0  0  0  0  0  0  0  0
   19.1223   19.6298   24.5512 H   0  0  0  0  0  0  0  0  0  0  0  0
   20.6244   18.2015   23.9077 C   0  0  0  0  0  0  0  0  0  0  0  0
   21.5784   17.8099   24.2851 H   0  0  0  0  0  0  0  0  0  0  0  0
   19.9287   17.3526   23.8710 H   0  0  0  0  0  0  0  0  0  0  0  0
   20.8412   18.7582   22.4805 C   0  0  0  0  0  0  0  0  0  0  0  0
   21.3214   17.9773   21.8768 H   0  0  0  0  0  0  0  0  0  0  0  0
   21.5463   19.6001   22.5189 H   0  0  0  0  0  0  0  0  0  0  0  0
   19.5249   19.2085   21.7967 C   0  0  0  0  0  0  0  0  0  0  0  0
   18.8279   18.3610   21.7401 H   0  0  0  0  0  0  0  0  0  0  0  0
   19.0329   19.9722   22.4133 H   0  0  0  0  0  0  0  0  0  0  0  0
   19.7364   19.7974   20.3806 C   0  0  0  0  0  0  0  0  0  0  0  0
   20.4242   20.6530   20.4325 H   0  0  0  0  0  0  0  0  0  0  0  0
   18.7782   20.1958   20.0186 H   0  0  0  0  0  0  0  0  0  0  0  0
   20.2640   18.7670   19.3560 C   0  0  0  0  0  0  0  0  0  0  0  0
   21.2779   18.4310   19.6059 H   0  0  0  0  0  0  0  0  0  0  0  0
   20.3025   19.2093   18.3521 H   0  0  0  0  0  0  0  0  0  0  0  0
   19.6108   17.8861   19.3092 H   0  0  0  0  0  0  0  0  0  0  0  0
   19.3977   19.8503   27.2038 C   0  0  0  0  0  0  0  0  0  0  0  0
   18.4319   20.1924   26.8255 H   0  0  0  0  0  0  0  0  0  0  0  0
   19.2800   19.4613   28.2177 H   0  0  0  0  0  0  0  0  0  0  0  0
   20.1088   20.6794   27.2071 H   0  0  0  0  0  0  0  0  0  0  0  0
  1  2  1  0  0  0  0
  1  3  1  0  0  0  0
  1  4  1  0  0  0  0
  4  5  1  0  0  0  0
  4  6  1  0  0  0  0
  4  7  1  0  0  0  0
  7  8  1  0  0  0  0
  7  9  1  0  0  0  0
  7 10  1  0  0  0  0
 10 11  1  0  0  0  0
 10 12  1  0  0  0  0
 10 13  1  0  0  0  0
 13 14  1  0  0  0  0
 13 15  1  0  0  0  0
 13 16  1  0  0  0  0
 16 17  1  0  0  0  0
 16 18  1  0  0  0  0
 16 19  1  0  0  0  0
 19 20  1  0  0  0  0
 19 21  1  0  0  0  0
 19 22  1  0  0  0  0
  1 23  1  0  0  0  0
 23 24  1  0  0  0  0
 23 25  1  0  0  0  0
 23 26  1  0  0  0  0
M  END
> <VConfSearch Rank>
4

> <Conf_Id>
137

> <Delta U+W>
1.038

> <U+W>
22.880

> <U>
71.810

> <W>
-48.930

> <W(PB)>
-51.257

> <W(SA)>
2.327

> <Valence>
2.568

> <Coulomb>
68.877

> <VdW>
0.364

> <VdW6>
-6.470

> <VdW12>
6.834

> <Bond>
0.191

> <Angle>
0.752

> <Pdih>
1.626

> <Idih>
0.000

> <Tether>
0.000

$$$$
VeraChem MOL file


 26 25  0  0  0  0  0  0  0  0999 V2000     
   20.4398   18.6413   26.2151 N   0  3  0  0  0  0  0  0  0  0  0  0
   21.4536   18.5934   26.0292 H   0  0  0  0  0  0  0  0  0  0  0  0
   20.1128   17.6625   26.2085 H   0  0  0  0  0  0  0  0  0  0  0  0
   19.7447   19.4322   25.1250 C   0  0  0  0  0  0  0  0  0  0  0  0
   20.1235   20.4567   25.1606 H   0  0  0  0  0  0  0  0  0  0  0  0
   18.6764   19.4519   25.3546 H   0  0  0  0  0  0  0  0  0  0  0  0
   19.9612   18.8487   23.7169 C   0  0  0  0  0  0  0  0  0  0  0  0
   21.0373   18.8165   23.5056 H   0  0  0  0  0  0  0  0  0  0  0  0
   19.5939   17.8141   23.6905 H   0  0  0  0  0  0  0  0  0  0  0  0
   19.2313   19.6881   22.6417 C   0  0  0  0  0  0  0  0  0  0  0  0
   19.6330   20.7110   22.6344 H   0  0  0  0  0  0  0  0  0  0  0  0
   18.1711   19.7760   22.9171 H   0  0  0  0  0  0  0  0  0  0  0  0
   19.3202   19.0853   21.2178 C   0  0  0  0  0  0  0  0  0  0  0  0
   18.9023   18.0691   21.2211 H   0  0  0  0  0  0  0  0  0  0  0  0
   18.6813   19.6782   20.5487 H   0  0  0  0  0  0  0  0  0  0  0  0
   20.7572   19.0568   20.6450 C   0  0  0  0  0  0  0  0  0  0  0  0
   21.3963   18.4046   21.2550 H   0  0  0  0  0  0  0  0  0  0  0  0
   21.1948   20.0639   20.6894 H   0  0  0  0  0  0  0  0  0  0  0  0
   20.7785   18.5542   19.1856 C   0  0  0  0  0  0  0  0  0  0  0  0
   20.3740   17.5362   19.1128 H   0  0  0  0  0  0  0  0  0  0  0  0
   21.8047   18.5374   18.7962 H   0  0  0  0  0  0  0  0  0  0  0  0
   20.1823   19.2063   18.5341 H   0  0  0  0  0  0  0  0  0  0  0  0
   20.1751   19.2834   27.5699 C   0  0  0  0  0  0  0  0  0  0  0  0
   19.0994   19.2928   27.7590 H   0  0  0  0  0  0  0  0  0  0  0  0
   20.6810   18.7044   28.3457 H   0  0  0  0  0  0  0  0  0  0  0  0
   20.5588   20.3060   27.5637 H   0  0  0  0  0  0  0  0  0  0  0  0
  1  2  1  0  0  0  0
  1  3  1  0  0  0  0
  1  4  1  0  0  0  0
  4  5  1  0  0  0  0
  4  6  1  0  0  0  0
  4  7  1  0  0  0  0
  7  8  1  0  0  0  0
  7  9  1  0  0  0  0
  7 10  1  0  0  0  0
 10 11  1  0  0  0  0
 10 12  1  0  0  0  0
 10 13  1  0  0  0  0
 13 14  1  0  0  0  0
 13 15  1  0  0  0  0
 13 16  1  0  0  0  0
 16 17  1  0  0  0  0
 16 18  1  0  0  0  0
 16 19  1  0  0  0  0
 19 20  1  0  0  0  0
 19 21  1  0  0  0  0
 19 22  1  0  0  0  0
  1 23  1  0  0  0  0
 23 24  1  0  0  0  0
 23 25  1  0  0  0  0
 23 26  1  0  0  0  0
M  END
> <VConfSearch Rank>
5

> <Conf_Id>
35

> <Delta U+W>
0.670

> <U+W>
22.512

> <U>
71.348

> <W>
-48.837

> <W(PB)>
-51.150

> <W(SA)>
2.313

> <Valence>
2.262

> <Coulomb>
68.807

> <VdW>
0.280

> <VdW6>
-5.915

> <VdW12>
6.195

> <Bond>
0.164

> <Angle>
0.622

> <Pdih>
1.475

> <Idih>
0.000

> <Tether>
0.000

$$$$
VeraChem MOL file


 26 25  0  0  0  0  0  0  0  0999 V2000     
   19.5536   18.5508   26.1837 N   0  3  0  0  0  0  0  0  0  0  0  0
   20.0709   17.6582   26.2069 H   0  0  0  0  0  0  0  0  0  0  0  0
   18.5858   18.3006   25.9275 H   0  0  0  0  0  0  0  0  0  0  0  0
   20.1494   19.4735   25.1393 C   0  0  0  0  0  0  0  0  0  0  0  0
   21.1730   19.7067   25.4431 H   0  0  0  0  0  0  0  0  0  0  0  0
   19.5701   20.4003   25.1411 H   0  0  0  0  0  0  0  0  0  0  0  0
   20.1542   18.8685   23.7237 C   0  0  0  0  0  0  0  0  0  0  0  0
   20.7235   17.9295   23.7305 H   0  0  0  0  0  0  0  0  0  0  0  0
   19.1242   18.6214   23.4377 H   0  0  0  0  0  0  0  0  0  0  0  0
   20.7732   19.8456   22.6963 C   0  0  0  0  0  0  0  0  0  0  0  0
   21.7720   20.1435   23.0447 H   0  0  0  0  0  0  0  0  0  0  0  0
   20.1750   20.7664   22.6535 H   0  0  0  0  0  0  0  0  0  0  0  0
   20.9078   19.2474   21.2741 C   0  0  0  0  0  0  0  0  0  0  0  0
   21.4591   19.9618   20.6470 H   0  0  0  0  0  0  0  0  0  0  0  0
   21.5208   18.3364   21.3139 H   0  0  0  0  0  0  0  0  0  0  0  0
   19.5497   18.9335   20.6023 C   0  0  0  0  0  0  0  0  0  0  0  0
   18.9159   19.8313   20.6087 H   0  0  0  0  0  0  0  0  0  0  0  0
   19.0143   18.1615   21.1707 H   0  0  0  0  0  0  0  0  0  0  0  0
   19.7325   18.4473   19.1486 C   0  0  0  0  0  0  0  0  0  0  0  0
   20.2290   19.2110   18.5357 H   0  0  0  0  0  0  0  0  0  0  0  0
   18.7607   18.2266   18.6884 H   0  0  0  0  0  0  0  0  0  0  0  0
   20.3382   17.5325   19.1116 H   0  0  0  0  0  0  0  0  0  0  0  0
   19.5876   19.2234   27.5491 C   0  0  0  0  0  0  0  0  0  0  0  0
   19.0068   20.1475   27.5088 H   0  0  0  0  0  0  0  0  0  0  0  0
   19.1560   18.5485   28.2917 H   0  0  0  0  0  0  0  0  0  0  0  0
   20.6233   19.4483   27.8130 H   0  0  0  0  0  0  0  0  0  0  0  0
  1  2  1  0  0  0  0
  1  3  1  0  0  0  0
  1  4  1  0  0  0  0
  4  5  1  0  0  0  0
  4  6  1  0  0  0  0
  4  7  1  0  0  0  0
  7  8  1  0  0  0  0
  7  9  1  0  0  0  0
  7 10  1  0  0  0  0
 10 11  1  0  0  0  0
 10 12  1  0  0  0  0
 10 13  1  0  0  0  0
 13 14  1  0  0  0  0
 13 15  1  0  0  0  0
 13 16  1  0  0  0  0
 16 17  1  0  0  0  0
 16 18  1  0  0  0  0
 16 19  1  0  0  0  0
 19 20  1  0  0  0  0
 19 21  1  0  0  0  0
 19 22  1  0  0  0  0
  1 23  1  0  0  0  0
 23 24  1  0  0  0  0
 23 25  1  0  0  0  0
 23 26  1  0  0  0  0
M  END
> <VConfSearch Rank>
6

> <Conf_Id>
36

> <Delta U+W>
0.662

> <U+W>
22.504

> <U>
71.348

> <W>
-48.844

> <W(PB)>
-51.157

> <W(SA)>
2.313

> <Valence>
2.262

> <Coulomb>
68.807

> <VdW>
0.280

> <VdW6>
-5.916

> <VdW12>
6.195

> <Bond>
0.164

> <Angle>
0.622

> <Pdih>
1.475

> <Idih>
0.000

> <Tether>
0.000

$$$$
VeraChem MOL file


 26 25  0  0  0  0  0  0  0  0999 V2000     
   20.0149   18.8154   26.2927 N   0  3  0  0  0  0  0  0  0  0  0  0
   20.2810   17.8191   26.3294 H   0  0  0  0  0  0  0  0  0  0  0  0
   19.0812   18.8664   26.7291 H   0  0  0  0  0  0  0  0  0  0  0  0
   19.9461   19.2857   24.8538 C   0  0  0  0  0  0  0  0  0  0  0  0
   20.9506   19.2103   24.4308 H   0  0  0  0  0  0  0  0  0  0  0  0
   19.6518   20.3382   24.8586 H   0  0  0  0  0  0  0  0  0  0  0  0
   18.9563   18.4749   23.9950 C   0  0  0  0  0  0  0  0  0  0  0  0
   19.2510   17.4171   23.9915 H   0  0  0  0  0  0  0  0  0  0  0  0
   17.9601   18.5224   24.4546 H   0  0  0  0  0  0  0  0  0  0  0  0
   18.8633   18.9935   22.5405 C   0  0  0  0  0  0  0  0  0  0  0  0
   18.5416   20.0443   22.5460 H   0  0  0  0  0  0  0  0  0  0  0  0
   18.0781   18.4315   22.0159 H   0  0  0  0  0  0  0  0  0  0  0  0
   20.1933   18.8585   21.7603 C   0  0  0  0  0  0  0  0  0  0  0  0
   20.9763   19.4558   22.2464 H   0  0  0  0  0  0  0  0  0  0  0  0
   20.5293   17.8125   21.7852 H   0  0  0  0  0  0  0  0  0  0  0  0
   20.0465   19.3159   20.2919 C   0  0  0  0  0  0  0  0  0  0  0  0
   19.7098   20.3617   20.2609 H   0  0  0  0  0  0  0  0  0  0  0  0
   19.2708   18.7186   19.7924 H   0  0  0  0  0  0  0  0  0  0  0  0
   21.3739   19.1824   19.5153 C   0  0  0  0  0  0  0  0  0  0  0  0
   22.1615   19.7968   19.9706 H   0  0  0  0  0  0  0  0  0  0  0  0
   21.2494   19.5112   18.4754 H   0  0  0  0  0  0  0  0  0  0  0  0
   21.7193   18.1404   19.4997 H   0  0  0  0  0  0  0  0  0  0  0  0
   21.0137   19.6638   27.0676 C   0  0  0  0  0  0  0  0  0  0  0  0
   20.6937   20.7078   27.0425 H   0  0  0  0  0  0  0  0  0  0  0  0
   21.0534   19.3150   28.1020 H   0  0  0  0  0  0  0  0  0  0  0  0
   21.9997   19.5676   26.6078 H   0  0  0  0  0  0  0  0  0  0  0  0
  1  2  1  0  0  0  0
  1  3  1  0  0  0  0
  1  4  1  0  0  0  0
  4  5  1  0  0  0  0
  4  6  1  0  0  0  0
  4  7  1  0  0  0  0
  7  8  1  0  0  0  0
  7  9  1  0  0  0  0
  7 10  1  0  0  0  0
 10 11  1  0  0  0  0
 10 12  1  0  0  0  0
 10 13  1  0  0  0  0
 13 14  1  0  0  0  0
 13 15  1  0  0  0  0
 13 16  1  0  0  0  0
 16 17  1  0  0  0  0
 16 18  1  0  0  0  0
 16 19  1  0  0  0  0
 19 20  1  0  0  0  0
 19 21  1  0  0  0  0
 19 22  1  0  0  0  0
  1 23  1  0  0  0  0
 23 24  1  0  0  0  0
 23 25  1  0  0  0  0
 23 26  1  0  0  0  0
M  END
> <VConfSearch Rank>
7

> <Conf_Id>
46

> <Delta U+W>
0.496

> <U+W>
22.338

> <U>
71.138

> <W>
-48.799

> <W(PB)>
-51.136

> <W(SA)>
2.337

> <Valence>
2.016

> <Coulomb>
68.932

> <VdW>
0.190

> <VdW6>
-5.902

> <VdW12>
6.092

> <Bond>
0.149

> <Angle>
0.477

> <Pdih>
1.390

> <Idih>
0.000

> <Tether>
0.000

$$$$
VeraChem MOL file


 26 25  0  0  0  0  0  0  0  0999 V2000     
   19.9282   18.8065   26.2896 N   0  3  0  0  0  0  0  0  0  0  0  0
   20.7994   19.0421   26.7900 H   0  0  0  0  0  0  0  0  0  0  0  0
   19.8671   17.7767   26.3147 H   0  0  0  0  0  0  0  0  0  0  0  0
   20.0012   19.2913   24.8557 C   0  0  0  0  0  0  0  0  0  0  0  0
   20.0755   20.3815   24.8737 H   0  0  0  0  0  0  0  0  0  0  0  0
   19.0647   19.0175   24.3640 H   0  0  0  0  0  0  0  0  0  0  0  0
   21.1920   18.7036   24.0742 C   0  0  0  0  0  0  0  0  0  0  0  0
   22.1234   18.9482   24.6020 H   0  0  0  0  0  0  0  0  0  0  0  0
   21.1184   17.6081   24.0577 H   0  0  0  0  0  0  0  0  0  0  0  0
   21.2799   19.2407   22.6261 C   0  0  0  0  0  0  0  0  0  0  0  0
   22.1973   18.8529   22.1618 H   0  0  0  0  0  0  0  0  0  0  0  0
   21.3812   20.3347   22.6466 H   0  0  0  0  0  0  0  0  0  0  0  0
   20.0626   18.8450   21.7557 C   0  0  0  0  0  0  0  0  0  0  0  0
   19.9444   17.7526   21.7644 H   0  0  0  0  0  0  0  0  0  0  0  0
   19.1429   19.2680   22.1815 H   0  0  0  0  0  0  0  0  0  0  0  0
   20.2163   19.3333   20.2979 C   0  0  0  0  0  0  0  0  0  0  0  0
   21.1299   18.9089   19.8582 H   0  0  0  0  0  0  0  0  0  0  0  0
   20.3358   20.4258   20.2832 H   0  0  0  0  0  0  0  0  0  0  0  0
   19.0011   18.9396   19.4312 C   0  0  0  0  0  0  0  0  0  0  0  0
   18.8756   17.8495   19.3989 H   0  0  0  0  0  0  0  0  0  0  0  0
   19.1289   19.2944   18.4003 H   0  0  0  0  0  0  0  0  0  0  0  0
   18.0755   19.3787   19.8259 H   0  0  0  0  0  0  0  0  0  0  0  0
   18.7267   19.4299   26.9866 C   0  0  0  0  0  0  0  0  0  0  0  0
   18.6859   19.0728   28.0181 H   0  0  0  0  0  0  0  0  0  0  0  0
   18.8299   20.5172   26.9765 H   0  0  0  0  0  0  0  0  0  0  0  0
   17.8152   19.1397   26.4595 H   0  0  0  0  0  0  0  0  0  0  0  0
  1  2  1  0  0  0  0
  1  3  1  0  0  0  0
  1  4  1  0  0  0  0
  4  5  1  0  0  0  0
  4  6  1  0  0  0  0
  4  7  1  0  0  0  0
  7  8  1  0  0  0  0
  7  9  1  0  0  0  0
  7 10  1  0  0  0  0
 10 11  1  0  0  0  0
 10 12  1  0  0  0  0
 10 13  1  0  0  0  0
 13 14  1  0  0  0  0
 13 15  1  0  0  0  0
 13 16  1  0  0  0  0
 16 17  1  0  0  0  0
 16 18  1  0  0  0  0
 16 19  1  0  0  0  0
 19 20  1  0  0  0  0
 19 21  1  0  0  0  0
 19 22  1  0  0  0  0
  1 23  1  0  0  0  0
 23 24  1  0  0  0  0
 23 25  1  0  0  0  0
 23 26  1  0  0  0  0
M  END
> <VConfSearch Rank>
8

> <Conf_Id>
45

> <Delta U+W>
0.471

> <U+W>
22.313

> <U>
71.138

> <W>
-48.825

> <W(PB)>
-51.169

> <W(SA)>
2.344

> <Valence>
2.016

> <Coulomb>
68.932

> <VdW>
0.190

> <VdW6>
-5.902

> <VdW12>
6.092

> <Bond>
0.149

> <Angle>
0.477

> <Pdih>
1.390

> <Idih>
0.000

> <Tether>
0.000

$$$$
VeraChem MOL file


 26 25  0  0  0  0  0  0  0  0999 V2000     
   20.4254   19.6109   25.8092 N   0  3  0  0  0  0  0  0  0  0  0  0
   20.0764   20.4660   25.3506 H   0  0  0  0  0  0  0  0  0  0  0  0
   21.4367   19.5814   25.6067 H   0  0  0  0  0  0  0  0  0  0  0  0
   19.7405   18.3904   25.2252 C   0  0  0  0  0  0  0  0  0  0  0  0
   18.6736   18.4620   25.4512 H   0  0  0  0  0  0  0  0  0  0  0  0
   20.1396   17.5113   25.7375 H   0  0  0  0  0  0  0  0  0  0  0  0
   19.9390   18.2305   23.7051 C   0  0  0  0  0  0  0  0  0  0  0  0
   21.0124   18.1578   23.4893 H   0  0  0  0  0  0  0  0  0  0  0  0
   19.4902   17.2775   23.3950 H   0  0  0  0  0  0  0  0  0  0  0  0
   19.2991   19.3869   22.8965 C   0  0  0  0  0  0  0  0  0  0  0  0
   19.8011   20.3350   23.1312 H   0  0  0  0  0  0  0  0  0  0  0  0
   18.2525   19.5047   23.2100 H   0  0  0  0  0  0  0  0  0  0  0  0
   19.3295   19.1591   21.3650 C   0  0  0  0  0  0  0  0  0  0  0  0
   18.8075   18.2236   21.1209 H   0  0  0  0  0  0  0  0  0  0  0  0
   18.7592   19.9645   20.8817 H   0  0  0  0  0  0  0  0  0  0  0  0
   20.7584   19.1292   20.7721 C   0  0  0  0  0  0  0  0  0  0  0  0
   21.3233   18.2834   21.1859 H   0  0  0  0  0  0  0  0  0  0  0  0
   21.2981   20.0431   21.0575 H   0  0  0  0  0  0  0  0  0  0  0  0
   20.7339   19.0097   19.2333 C   0  0  0  0  0  0  0  0  0  0  0  0
   20.2263   18.0891   18.9170 H   0  0  0  0  0  0  0  0  0  0  0  0
   21.7546   18.9870   18.8299 H   0  0  0  0  0  0  0  0  0  0  0  0
   20.2115   19.8615   18.7787 H   0  0  0  0  0  0  0  0  0  0  0  0
   20.1821   19.6733   27.3107 C   0  0  0  0  0  0  0  0  0  0  0  0
   20.5875   18.7730   27.7777 H   0  0  0  0  0  0  0  0  0  0  0  0
   20.6797   20.5562   27.7179 H   0  0  0  0  0  0  0  0  0  0  0  0
   19.1079   19.7358   27.4981 H   0  0  0  0  0  0  0  0  0  0  0  0
  1  2  1  0  0  0  0
  1  3  1  0  0  0  0
  1  4  1  0  0  0  0
  4  5  1  0  0  0  0
  4  6  1  0  0  0  0
  4  7  1  0  0  0  0
  7  8  1  0  0  0  0
  7  9  1  0  0  0  0
  7 10  1  0  0  0  0
 10 11  1  0  0  0  0
 10 12  1  0  0  0  0
 10 13  1  0  0  0  0
 13 14  1  0  0  0  0
 13 15  1  0  0  0  0
 13 16  1  0  0  0  0
 16 17  1  0  0  0  0
 16 18  1  0  0  0  0
 16 19  1  0  0  0  0
 19 20  1  0  0  0  0
 19 21  1  0  0  0  0
 19 22  1  0  0  0  0
  1 23  1  0  0  0  0
 23 24  1  0  0  0  0
 23 25  1  0  0  0  0
 23 26  1  0  0  0  0
M  END
> <VConfSearch Rank>
9

> <Conf_Id>
143

> <Delta U+W>
0.915

> <U+W>
22.757

> <U>
71.994

> <W>
-49.237

> <W(PB)>
-51.537

> <W(SA)>
2.300

> <Valence>
2.376

> <Coulomb>
69.315

> <VdW>
0.303

> <VdW6>
-6.508

> <VdW12>
6.810

> <Bond>
0.182

> <Angle>
0.660

> <Pdih>
1.534

> <Idih>
0.000

> <Tether>
0.000

$$$$
VeraChem MOL file


 26 25  0  0  0  0  0  0  0  0999 V2000     
   20.2727   18.8000   25.9006 N   0  3  0  0  0  0  0  0  0  0  0  0
   21.1704   19.2532   25.6730 H   0  0  0  0  0  0  0  0  0  0  0  0
   20.4510   17.7858   25.8363 H   0  0  0  0  0  0  0  0  0  0  0  0
   19.2125   19.2080   24.8957 C   0  0  0  0  0  0  0  0  0  0  0  0
   19.0580   20.2862   24.9858 H   0  0  0  0  0  0  0  0  0  0  0  0
   18.2834   18.7058   25.1773 H   0  0  0  0  0  0  0  0  0  0  0  0
   19.5609   18.8536   23.4364 C   0  0  0  0  0  0  0  0  0  0  0  0
   19.7451   17.7743   23.3543 H   0  0  0  0  0  0  0  0  0  0  0  0
   18.6819   19.0763   22.8193 H   0  0  0  0  0  0  0  0  0  0  0  0
   20.7788   19.6464   22.9023 C   0  0  0  0  0  0  0  0  0  0  0  0
   21.6316   19.5079   23.5796 H   0  0  0  0  0  0  0  0  0  0  0  0
   20.5484   20.7207   22.9174 H   0  0  0  0  0  0  0  0  0  0  0  0
   21.2324   19.2378   21.4766 C   0  0  0  0  0  0  0  0  0  0  0  0
   22.1218   19.8341   21.2298 H   0  0  0  0  0  0  0  0  0  0  0  0
   21.5686   18.1918   21.4724 H   0  0  0  0  0  0  0  0  0  0  0  0
   20.1760   19.4661   20.3644 C   0  0  0  0  0  0  0  0  0  0  0  0
   20.6952   19.7788   19.4476 H   0  0  0  0  0  0  0  0  0  0  0  0
   19.5114   20.2990   20.6331 H   0  0  0  0  0  0  0  0  0  0  0  0
   19.3484   18.2016   20.0345 C   0  0  0  0  0  0  0  0  0  0  0  0
   18.7828   17.8400   20.9001 H   0  0  0  0  0  0  0  0  0  0  0  0
   19.9989   17.3862   19.6922 H   0  0  0  0  0  0  0  0  0  0  0  0
   18.6295   18.4119   19.2321 H   0  0  0  0  0  0  0  0  0  0  0  0
   19.8265   19.1765   27.3065 C   0  0  0  0  0  0  0  0  0  0  0  0
   18.8919   18.6604   27.5369 H   0  0  0  0  0  0  0  0  0  0  0  0
   20.5982   18.8778   28.0194 H   0  0  0  0  0  0  0  0  0  0  0  0
   19.6750   20.2570   27.3580 H   0  0  0  0  0  0  0  0  0  0  0  0
  1  2  1  0  0  0  0
  1  3  1  0  0  0  0
  1  4  1  0  0  0  0
  4  5  1  0  0  0  0
  4  6  1  0  0  0  0
  4  7  1  0  0  0  0
  7  8  1  0  0  0  0
  7  9  1  0  0  0  0
  7 10  1  0  0  0  0
 10 11  1  0  0  0  0
 10 12  1  0  0  0  0
 10 13  1  0  0  0  0
 13 14  1  0  0  0  0
 13 15  1  0  0  0  0
 13 16  1  0  0  0  0
 16 17  1  0  0  0  0
 16 18  1  0  0  0  0
 16 19  1  0  0  0  0
 19 20  1  0  0  0  0
 19 21  1  0  0  0  0
 19 22  1  0  0  0  0
  1 23  1  0  0  0  0
 23 24  1  0  0  0  0
 23 25  1  0  0  0  0
 23 26  1  0  0  0  0
M  END
> <VConfSearch Rank>
10

> <Conf_Id>
76

> <Delta U+W>
3.468

> <U+W>
25.310

> <U>
74.594

> <W>
-49.283

> <W(PB)>
-51.537

> <W(SA)>
2.253

> <Valence>
4.886

> <Coulomb>
69.332

> <VdW>
0.376

> <VdW6>
-7.329

> <VdW12>
7.705

> <Bond>
0.232

> <Angle>
1.251

> <Pdih>
3.403

> <Idih>
0.000

> <Tether>
0.000

$$$$
VeraChem MOL file


 26 25  0  0  0  0  0  0  0  0999 V2000     
   20.3303   18.5051   26.0411 N   0  3  0  0  0  0  0  0  0  0  0  0
   21.2062   18.0289   25.7751 H   0  0  0  0  0  0  0  0  0  0  0  0
   19.6330   17.7533   26.1566 H   0  0  0  0  0  0  0  0  0  0  0  0
   19.8972   19.4558   24.9431 C   0  0  0  0  0  0  0  0  0  0  0  0
   20.6632   20.2295   24.8481 H   0  0  0  0  0  0  0  0  0  0  0  0
   18.9652   19.9310   25.2595 H   0  0  0  0  0  0  0  0  0  0  0  0
   19.6899   18.7630   23.5842 C   0  0  0  0  0  0  0  0  0  0  0  0
   20.6210   18.2678   23.2868 H   0  0  0  0  0  0  0  0  0  0  0  0
   18.9316   17.9759   23.6906 H   0  0  0  0  0  0  0  0  0  0  0  0
   19.2386   19.7721   22.5009 C   0  0  0  0  0  0  0  0  0  0  0  0
   19.9587   20.5984   22.4231 H   0  0  0  0  0  0  0  0  0  0  0  0
   18.2926   20.2247   22.8295 H   0  0  0  0  0  0  0  0  0  0  0  0
   19.0159   19.1269   21.1078 C   0  0  0  0  0  0  0  0  0  0  0  0
   18.6986   18.0807   21.2178 H   0  0  0  0  0  0  0  0  0  0  0  0
   18.1741   19.6411   20.6236 H   0  0  0  0  0  0  0  0  0  0  0  0
   20.2302   19.2174   20.1483 C   0  0  0  0  0  0  0  0  0  0  0  0
   20.4740   20.2726   19.9610 H   0  0  0  0  0  0  0  0  0  0  0  0
   19.9377   18.7965   19.1762 H   0  0  0  0  0  0  0  0  0  0  0  0
   21.4930   18.4808   20.6463 C   0  0  0  0  0  0  0  0  0  0  0  0
   21.2677   17.4385   20.9065 H   0  0  0  0  0  0  0  0  0  0  0  0
   21.9235   18.9766   21.5249 H   0  0  0  0  0  0  0  0  0  0  0  0
   22.2645   18.4723   19.8655 H   0  0  0  0  0  0  0  0  0  0  0  0
   20.5129   19.2690   27.3453 C   0  0  0  0  0  0  0  0  0  0  0  0
   21.2780   20.0363   27.2081 H   0  0  0  0  0  0  0  0  0  0  0  0
   19.5657   19.7363   27.6235 H   0  0  0  0  0  0  0  0  0  0  0  0
   20.8245   18.5730   28.1274 H   0  0  0  0  0  0  0  0  0  0  0  0
  1  2  1  0  0  0  0
  1  3  1  0  0  0  0
  1  4  1  0  0  0  0
  4  5  1  0  0  0  0
  4  6  1  0  0  0  0
  4  7  1  0  0  0  0
  7  8  1  0  0  0  0
  7  9  1  0  0  0  0
  7 10  1  0  0  0  0
 10 11  1  0  0  0  0
 10 12  1  0  0  0  0
 10 13  1  0  0  0  0
 13 14  1  0  0  0  0
 13 15  1  0  0  0  0
 13 16  1  0  0  0  0
 16 17  1  0  0  0  0
 16 18  1  0  0  0  0
 16 19  1  0  0  0  0
 19 20  1  0  0  0  0
 19 21  1  0  0  0  0
 19 22  1  0  0  0  0
  1 23  1  0  0  0  0
 23 24  1  0  0  0  0
 23 25  1  0  0  0  0
 23 26  1  0  0  0  0
M  END
> <VConfSearch Rank>
11

> <Conf_Id>
123

> <Delta U+W>
3.101

> <U+W>
24.943

> <U>
74.070

> <W>
-49.127

> <W(PB)>
-51.421

> <W(SA)>
2.295

> <Valence>
4.690

> <Coulomb>
69.115

> <VdW>
0.266

> <VdW6>
-6.809

> <VdW12>
7.075

> <Bond>
0.212

> <Angle>
1.133

> <Pdih>
3.345

> <Idih>
0.000

> <Tether>
0.000

$$$$
VeraChem MOL file


 26 25  0  0  0  0  0  0  0  0999 V2000     
   19.6255   19.0613   25.9096 N   0  3  0  0  0  0  0  0  0  0  0  0
   19.2564   18.1101   26.0635 H   0  0  0  0  0  0  0  0  0  0  0  0
   18.8396   19.6030   25.5195 H   0  0  0  0  0  0  0  0  0  0  0  0
   20.7732   19.0217   24.9192 C   0  0  0  0  0  0  0  0  0  0  0  0
   21.5800   18.4406   25.3733 H   0  0  0  0  0  0  0  0  0  0  0  0
   21.1294   20.0447   24.7746 H   0  0  0  0  0  0  0  0  0  0  0  0
   20.4039   18.4039   23.5561 C   0  0  0  0  0  0  0  0  0  0  0  0
   21.3190   18.3206   22.9592 H   0  0  0  0  0  0  0  0  0  0  0  0
   20.0411   17.3785   23.7069 H   0  0  0  0  0  0  0  0  0  0  0  0
   19.3390   19.2330   22.7934 C   0  0  0  0  0  0  0  0  0  0  0  0
   19.6512   20.2842   22.7227 H   0  0  0  0  0  0  0  0  0  0  0  0
   18.4094   19.2302   23.3779 H   0  0  0  0  0  0  0  0  0  0  0  0
   19.0225   18.6768   21.3804 C   0  0  0  0  0  0  0  0  0  0  0  0
   19.1740   17.5888   21.3555 H   0  0  0  0  0  0  0  0  0  0  0  0
   17.9523   18.8303   21.1838 H   0  0  0  0  0  0  0  0  0  0  0  0
   19.8088   19.3513   20.2270 C   0  0  0  0  0  0  0  0  0  0  0  0
   19.5701   20.4236   20.1963 H   0  0  0  0  0  0  0  0  0  0  0  0
   19.4551   18.9343   19.2737 H   0  0  0  0  0  0  0  0  0  0  0  0
   21.3404   19.1699   20.3083 C   0  0  0  0  0  0  0  0  0  0  0  0
   21.6100   18.1097   20.3987 H   0  0  0  0  0  0  0  0  0  0  0  0
   21.7616   19.7128   21.1635 H   0  0  0  0  0  0  0  0  0  0  0  0
   21.8214   19.5622   19.4030 H   0  0  0  0  0  0  0  0  0  0  0  0
   20.0946   19.6721   27.2228 C   0  0  0  0  0  0  0  0  0  0  0  0
   20.4505   20.6883   27.0394 H   0  0  0  0  0  0  0  0  0  0  0  0
   19.2592   19.6950   27.9260 H   0  0  0  0  0  0  0  0  0  0  0  0
   20.9047   19.0645   27.6321 H   0  0  0  0  0  0  0  0  0  0  0  0
  1  2  1  0  0  0  0
  1  3  1  0  0  0  0
  1  4  1  0  0  0  0
  4  5  1  0  0  0  0
  4  6  1  0  0  0  0
  4  7  1  0  0  0  0
  7  8  1  0  0  0  0
  7  9  1  0  0  0  0
  7 10  1  0  0  0  0
 10 11  1  0  0  0  0
 10 12  1  0  0  0  0
 10 13  1  0  0  0  0
 13 14  1  0  0  0  0
 13 15  1  0  0  0  0
 13 16  1  0  0  0  0
 16 17  1  0  0  0  0
 16 18  1  0  0  0  0
 16 19  1  0  0  0  0
 19 20  1  0  0  0  0
 19 21  1  0  0  0  0
 19 22  1  0  0  0  0
  1 23  1  0  0  0  0
 23 24  1  0  0  0  0
 23 25  1  0  0  0  0
 23 26  1  0  0  0  0
M  END
> <VConfSearch Rank>
12

> <Conf_Id>
111

> <Delta U+W>
3.383

> <U+W>
25.225

> <U>
74.516

> <W>
-49.292

> <W(PB)>
-51.558

> <W(SA)>
2.266

> <Valence>
4.842

> <Coulomb>
69.333

> <VdW>
0.342

> <VdW6>
-7.369

> <VdW12>
7.711

> <Bond>
0.232

> <Angle>
1.153

> <Pdih>
3.457

> <Idih>
0.000

> <Tether>
0.000

$$$$
VeraChem MOL file


 26 25  0  0  0  0  0  0  0  0999 V2000     
   19.3771   19.2879   25.5789 N   0  3  0  0  0  0  0  0  0  0  0  0
   18.7393   18.5475   25.9098 H   0  0  0  0  0  0  0  0  0  0  0  0
   18.8814   19.7551   24.8049 H   0  0  0  0  0  0  0  0  0  0  0  0
   20.6682   18.6758   25.0719 C   0  0  0  0  0  0  0  0  0  0  0  0
   21.1551   18.1828   25.9172 H   0  0  0  0  0  0  0  0  0  0  0  0
   21.3163   19.4881   24.7347 H   0  0  0  0  0  0  0  0  0  0  0  0
   20.4701   17.6572   23.9302 C   0  0  0  0  0  0  0  0  0  0  0  0
   21.4477   17.2348   23.6624 H   0  0  0  0  0  0  0  0  0  0  0  0
   19.8660   16.8179   24.2997 H   0  0  0  0  0  0  0  0  0  0  0  0
   19.8041   18.2471   22.6611 C   0  0  0  0  0  0  0  0  0  0  0  0
   18.7896   18.5944   22.8974 H   0  0  0  0  0  0  0  0  0  0  0  0
   19.6861   17.4356   21.9313 H   0  0  0  0  0  0  0  0  0  0  0  0
   20.6189   19.4021   22.0246 C   0  0  0  0  0  0  0  0  0  0  0  0
   20.7579   20.2044   22.7611 H   0  0  0  0  0  0  0  0  0  0  0  0
   21.6246   19.0453   21.7631 H   0  0  0  0  0  0  0  0  0  0  0  0
   19.9461   20.0130   20.7712 C   0  0  0  0  0  0  0  0  0  0  0  0
   20.5249   20.8921   20.4549 H   0  0  0  0  0  0  0  0  0  0  0  0
   18.9439   20.3826   21.0294 H   0  0  0  0  0  0  0  0  0  0  0  0
   19.8478   19.0299   19.5823 C   0  0  0  0  0  0  0  0  0  0  0  0
   19.1743   18.1930   19.8042 H   0  0  0  0  0  0  0  0  0  0  0  0
   20.8334   18.6204   19.3256 H   0  0  0  0  0  0  0  0  0  0  0  0
   19.4555   19.5408   18.6934 H   0  0  0  0  0  0  0  0  0  0  0  0
   19.6757   20.2770   26.6968 C   0  0  0  0  0  0  0  0  0  0  0  0
   18.7380   20.7107   27.0514 H   0  0  0  0  0  0  0  0  0  0  0  0
   20.1729   19.7533   27.5161 H   0  0  0  0  0  0  0  0  0  0  0  0
   20.3258   21.0666   26.3136 H   0  0  0  0  0  0  0  0  0  0  0  0
  1  2  1  0  0  0  0
  1  3  1  0  0  0  0
  1  4  1  0  0  0  0
  4  5  1  0  0  0  0
  4  6  1  0  0  0  0
  4  7  1  0  0  0  0
  7  8  1  0  0  0  0
  7  9  1  0  0  0  0
  7 10  1  0  0  0  0
 10 11  1  0  0  0  0
 10 12  1  0  0  0  0
 10 13  1  0  0  0  0
 13 14  1  0  0  0  0
 13 15  1  0  0  0  0
 13 16  1  0  0  0  0
 16 17  1  0  0  0  0
 16 18  1  0  0  0  0
 16 19  1  0  0  0  0
 19 20  1  0  0  0  0
 19 21  1  0  0  0  0
 19 22  1  0  0  0  0
  1 23  1  0  0  0  0
 23 24  1  0  0  0  0
 23 25  1  0  0  0  0
 23 26  1  0  0  0  0
M  END
> <VConfSearch Rank>
13

> <Conf_Id>
126

> <Delta U+W>
1.519

> <U+W>
23.361

> <U>
72.579

> <W>
-49.218

> <W(PB)>
-51.496

> <W(SA)>
2.279

> <Valence>
2.678

> <Coulomb>
69.622

> <VdW>
0.279

> <VdW6>
-7.328

> <VdW12>
7.608

> <Bond>
0.212

> <Angle>
0.911

> <Pdih>
1.555

> <Idih>
0.000

> <Tether>
0.000

$$$$
VeraChem MOL file


 26 25  0  0  0  0  0  0  0  0999 V2000     
   20.5056   19.4038   25.6188 N   0  3  0  0  0  0  0  0  0  0  0  0
   20.9491   19.9673   24.8779 H   0  0  0  0  0  0  0  0  0  0  0  0
   21.2556   18.8057   25.9988 H   0  0  0  0  0  0  0  0  0  0  0  0
   19.4042   18.5461   25.0272 C   0  0  0  0  0  0  0  0  0  0  0  0
   18.6300   19.2124   24.6397 H   0  0  0  0  0  0  0  0  0  0  0  0
   18.9696   17.9585   25.8399 H   0  0  0  0  0  0  0  0  0  0  0  0
   19.8841   17.5970   23.9094 C   0  0  0  0  0  0  0  0  0  0  0  0
   20.6185   16.8951   24.3263 H   0  0  0  0  0  0  0  0  0  0  0  0
   19.0337   16.9870   23.5770 H   0  0  0  0  0  0  0  0  0  0  0  0
   20.5037   18.3188   22.6858 C   0  0  0  0  0  0  0  0  0  0  0  0
   20.8347   17.5534   21.9720 H   0  0  0  0  0  0  0  0  0  0  0  0
   21.4076   18.8631   22.9900 H   0  0  0  0  0  0  0  0  0  0  0  0
   19.5181   19.2890   21.9856 C   0  0  0  0  0  0  0  0  0  0  0  0
   18.6266   18.7373   21.6567 H   0  0  0  0  0  0  0  0  0  0  0  0
   19.1677   20.0410   22.7047 H   0  0  0  0  0  0  0  0  0  0  0  0
   20.1390   20.0328   20.7781 C   0  0  0  0  0  0  0  0  0  0  0  0
   21.0246   20.5965   21.1034 H   0  0  0  0  0  0  0  0  0  0  0  0
   19.4174   20.7783   20.4155 H   0  0  0  0  0  0  0  0  0  0  0  0
   20.5183   19.0988   19.6062 C   0  0  0  0  0  0  0  0  0  0  0  0
   19.6570   18.4994   19.2839 H   0  0  0  0  0  0  0  0  0  0  0  0
   21.3305   18.4147   19.8809 H   0  0  0  0  0  0  0  0  0  0  0  0
   20.8601   19.6851   18.7434 H   0  0  0  0  0  0  0  0  0  0  0  0
   19.9351   20.3037   26.7059 C   0  0  0  0  0  0  0  0  0  0  0  0
   19.1668   20.9478   26.2726 H   0  0  0  0  0  0  0  0  0  0  0  0
   19.4984   19.6841   27.4922 H   0  0  0  0  0  0  0  0  0  0  0  0
   20.7382   20.9160   27.1221 H   0  0  0  0  0  0  0  0  0  0  0  0
  1  2  1  0  0  0  0
  1  3  1  0  0  0  0
  1  4  1  0  0  0  0
  4  5  1  0  0  0  0
  4  6  1  0  0  0  0
  4  7  1  0  0  0  0
  7  8  1  0  0  0  0
  7  9  1  0  0  0  0
  7 10  1  0  0  0  0
 10 11  1  0  0  0  0
 10 12  1  0  0  0  0
 10 13  1  0  0  0  0
 13 14  1  0  0  0  0
 13 15  1  0  0  0  0
 13 16  1  0  0  0  0
 16 17  1  0  0  0  0
 16 18  1  0  0  0  0
 16 19  1  0  0  0  0
 19 20  1  0  0  0  0
 19 21  1  0  0  0  0
 19 22  1  0  0  0  0
  1 23  1  0  0  0  0
 23 24  1  0  0  0  0
 23 25  1  0  0  0  0
 23 26  1  0  0  0  0
M  END
> <VConfSearch Rank>
14

> <Conf_Id>
134

> <Delta U+W>
1.464

> <U+W>
23.306

> <U>
72.579

> <W>
-49.273

> <W(PB)>
-51.540

> <W(SA)>
2.267

> <Valence>
2.677

> <Coulomb>
69.622

> <VdW>
0.280

> <VdW6>
-7.328

> <VdW12>
7.608

> <Bond>
0.212

> <Angle>
0.911

> <Pdih>
1.555

> <Idih>
0.000

> <Tether>
0.000

$$$$
VeraChem MOL file


 26 25  0  0  0  0  0  0  0  0999 V2000     
   20.2429   18.5229   26.0643 N   0  3  0  0  0  0  0  0  0  0  0  0
   21.0670   17.9493   25.8263 H   0  0  0  0  0  0  0  0  0  0  0  0
   19.4631   17.8547   26.1655 H   0  0  0  0  0  0  0  0  0  0  0  0
   19.9486   19.5046   24.9479 C   0  0  0  0  0  0  0  0  0  0  0  0
   20.7988   20.1869   24.8684 H   0  0  0  0  0  0  0  0  0  0  0  0
   19.0676   20.0842   25.2348 H   0  0  0  0  0  0  0  0  0  0  0  0
   19.7014   18.8251   23.5889 C   0  0  0  0  0  0  0  0  0  0  0  0
   20.5846   18.2319   23.3201 H   0  0  0  0  0  0  0  0  0  0  0  0
   18.8569   18.1288   23.6768 H   0  0  0  0  0  0  0  0  0  0  0  0
   19.4051   19.8664   22.4842 C   0  0  0  0  0  0  0  0  0  0  0  0
   20.2649   20.5396   22.3679 H   0  0  0  0  0  0  0  0  0  0  0  0
   18.5678   20.5005   22.8074 H   0  0  0  0  0  0  0  0  0  0  0  0
   19.0386   19.2338   21.1165 C   0  0  0  0  0  0  0  0  0  0  0  0
   18.1114   18.6548   21.2276 H   0  0  0  0  0  0  0  0  0  0  0  0
   18.8055   20.0397   20.4069 H   0  0  0  0  0  0  0  0  0  0  0  0
   20.1264   18.3199   20.4961 C   0  0  0  0  0  0  0  0  0  0  0  0
   19.7530   17.9339   19.5373 H   0  0  0  0  0  0  0  0  0  0  0  0
   20.2893   17.4383   21.1304 H   0  0  0  0  0  0  0  0  0  0  0  0
   21.4707   19.0424   20.2514 C   0  0  0  0  0  0  0  0  0  0  0  0
   21.3302   19.9392   19.6342 H   0  0  0  0  0  0  0  0  0  0  0  0
   22.1730   18.3811   19.7277 H   0  0  0  0  0  0  0  0  0  0  0  0
   21.9429   19.3442   21.1946 H   0  0  0  0  0  0  0  0  0  0  0  0
   20.4742   19.2749   27.3677 C   0  0  0  0  0  0  0  0  0  0  0  0
   19.5780   19.8477   27.6158 H   0  0  0  0  0  0  0  0  0  0  0  0
   20.6849   18.5566   28.1632 H   0  0  0  0  0  0  0  0  0  0  0  0
   21.3237   19.9507   27.2466 H   0  0  0  0  0  0  0  0  0  0  0  0
  1  2  1  0  0  0  0
  1  3  1  0  0  0  0
  1  4  1  0  0  0  0
  4  5  1  0  0  0  0
  4  6  1  0  0  0  0
  4  7  1  0  0  0  0
  7  8  1  0  0  0  0
  7  9  1  0  0  0  0
  7 10  1  0  0  0  0
 10 11  1  0  0  0  0
 10 12  1  0  0  0  0
 10 13  1  0  0  0  0
 13 14  1  0  0  0  0
 13 15  1  0  0  0  0
 13 16  1  0  0  0  0
 16 17  1  0  0  0  0
 16 18  1  0  0  0  0
 16 19  1  0  0  0  0
 19 20  1  0  0  0  0
 19 21  1  0  0  0  0
 19 22  1  0  0  0  0
  1 23  1  0  0  0  0
 23 24  1  0  0  0  0
 23 25  1  0  0  0  0
 23 26  1  0  0  0  0
M  END
> <VConfSearch Rank>
15

> <Conf_Id>
30

> <Delta U+W>
0.910

> <U+W>
22.752

> <U>
71.870

> <W>
-49.118

> <W(PB)>
-51.409

> <W(SA)>
2.290

> <Valence>
2.682

> <Coulomb>
68.933

> <VdW>
0.255

> <VdW6>
-6.833

> <VdW12>
7.088

> <Bond>
0.205

> <Angle>
1.003

> <Pdih>
1.473

> <Idih>
0.000

> <Tether>
0.000

$$$$
VeraChem MOL file


 26 25  0  0  0  0  0  0  0  0999 V2000     
   19.7801   18.4758   26.0479 N   0  3  0  0  0  0  0  0  0  0  0  0
   20.6696   17.9777   26.2083 H   0  0  0  0  0  0  0  0  0  0  0  0
   19.1073   17.7496   25.7568 H   0  0  0  0  0  0  0  0  0  0  0  0
   19.9480   19.5046   24.9478 C   0  0  0  0  0  0  0  0  0  0  0  0
   20.6719   20.2478   25.2916 H   0  0  0  0  0  0  0  0  0  0  0  0
   18.9856   20.0020   24.8042 H   0  0  0  0  0  0  0  0  0  0  0  0
   20.4217   18.8985   23.6144 C   0  0  0  0  0  0  0  0  0  0  0  0
   21.3810   18.3861   23.7662 H   0  0  0  0  0  0  0  0  0  0  0  0
   19.6972   18.1414   23.2886 H   0  0  0  0  0  0  0  0  0  0  0  0
   20.5788   19.9860   22.5258 C   0  0  0  0  0  0  0  0  0  0  0  0
   21.2464   20.7735   22.9023 H   0  0  0  0  0  0  0  0  0  0  0  0
   19.6113   20.4729   22.3447 H   0  0  0  0  0  0  0  0  0  0  0  0
   21.1601   19.4500   21.1917 C   0  0  0  0  0  0  0  0  0  0  0  0
   21.2752   20.2913   20.4944 H   0  0  0  0  0  0  0  0  0  0  0  0
   22.1748   19.0689   21.3715 H   0  0  0  0  0  0  0  0  0  0  0  0
   20.3249   18.3402   20.5032 C   0  0  0  0  0  0  0  0  0  0  0  0
   20.2990   17.4393   21.1308 H   0  0  0  0  0  0  0  0  0  0  0  0
   20.8346   18.0442   19.5756 H   0  0  0  0  0  0  0  0  0  0  0  0
   18.8831   18.7787   20.1598 C   0  0  0  0  0  0  0  0  0  0  0  0
   18.2949   18.9725   21.0654 H   0  0  0  0  0  0  0  0  0  0  0  0
   18.3669   17.9932   19.5929 H   0  0  0  0  0  0  0  0  0  0  0  0
   18.8829   19.6898   19.5476 H   0  0  0  0  0  0  0  0  0  0  0  0
   19.3112   19.1564   27.3265 C   0  0  0  0  0  0  0  0  0  0  0  0
   19.1944   18.4047   28.1103 H   0  0  0  0  0  0  0  0  0  0  0  0
   20.0540   19.8962   27.6327 H   0  0  0  0  0  0  0  0  0  0  0  0
   18.3536   19.6480   27.1412 H   0  0  0  0  0  0  0  0  0  0  0  0
  1  2  1  0  0  0  0
  1  3  1  0  0  0  0
  1  4  1  0  0  0  0
  4  5  1  0  0  0  0
  4  6  1  0  0  0  0
  4  7  1  0  0  0  0
  7  8  1  0  0  0  0
  7  9  1  0  0  0  0
  7 10  1  0  0  0  0
 10 11  1  0  0  0  0
 10 12  1  0  0  0  0
 10 13  1  0  0  0  0
 13 14  1  0  0  0  0
 13 15  1  0  0  0  0
 13 16  1  0  0  0  0
 16 17  1  0  0  0  0
 16 18  1  0  0  0  0
 16 19  1  0  0  0  0
 19 20  1  0  0  0  0
 19 21  1  0  0  0  0
 19 22  1  0  0  0  0
  1 23  1  0  0  0  0
 23 24  1  0  0  0  0
 23 25  1  0  0  0  0
 23 26  1  0  0  0  0
M  END
> <VConfSearch Rank>
16

> <Conf_Id>
29

> <Delta U+W>
0.886

> <U+W>
22.729

> <U>
71.870

> <W>
-49.141

> <W(PB)>
-51.404

> <W(SA)>
2.262

> <Valence>
2.682

> <Coulomb>
68.933

> <VdW>
0.255

> <VdW6>
-6.833

> <VdW12>
7.088

> <Bond>
0.205

> <Angle>
1.003

> <Pdih>
1.473

> <Idih>
0.000

> <Tether>
0.000

$$$$
VeraChem MOL file


 26 25  0  0  0  0  0  0  0  0999 V2000     
   19.4891   18.6617   25.8529 N   0  3  0  0  0  0  0  0  0  0  0  0
   20.0517   17.9294   26.3132 H   0  0  0  0  0  0  0  0  0  0  0  0
   18.6347   18.1858   25.5242 H   0  0  0  0  0  0  0  0  0  0  0  0
   20.2490   19.2436   24.6781 C   0  0  0  0  0  0  0  0  0  0  0  0
   21.1497   19.7256   25.0661 H   0  0  0  0  0  0  0  0  0  0  0  0
   19.6184   20.0091   24.2196 H   0  0  0  0  0  0  0  0  0  0  0  0
   20.6382   18.1912   23.6226 C   0  0  0  0  0  0  0  0  0  0  0  0
   21.2414   17.4082   24.1010 H   0  0  0  0  0  0  0  0  0  0  0  0
   19.7354   17.6959   23.2432 H   0  0  0  0  0  0  0  0  0  0  0  0
   21.4448   18.7952   22.4463 C   0  0  0  0  0  0  0  0  0  0  0  0
   21.7065   17.9946   21.7417 H   0  0  0  0  0  0  0  0  0  0  0  0
   22.4016   19.1753   22.8304 H   0  0  0  0  0  0  0  0  0  0  0  0
   20.7267   19.9423   21.6851 C   0  0  0  0  0  0  0  0  0  0  0  0
   20.6166   20.8091   22.3506 H   0  0  0  0  0  0  0  0  0  0  0  0
   21.3769   20.2805   20.8665 H   0  0  0  0  0  0  0  0  0  0  0  0
   19.3374   19.5784   21.1019 C   0  0  0  0  0  0  0  0  0  0  0  0
   18.9249   20.4652   20.6007 H   0  0  0  0  0  0  0  0  0  0  0  0
   18.6361   19.3385   21.9123 H   0  0  0  0  0  0  0  0  0  0  0  0
   19.3840   18.4116   20.0894 C   0  0  0  0  0  0  0  0  0  0  0  0
   18.3943   18.2496   19.6432 H   0  0  0  0  0  0  0  0  0  0  0  0
   19.6873   17.4733   20.5700 H   0  0  0  0  0  0  0  0  0  0  0  0
   20.0886   18.6241   19.2749 H   0  0  0  0  0  0  0  0  0  0  0  0
   19.1388   19.7659   26.8408 C   0  0  0  0  0  0  0  0  0  0  0  0
   18.5923   19.3337   27.6820 H   0  0  0  0  0  0  0  0  0  0  0  0
   20.0591   20.2322   27.1993 H   0  0  0  0  0  0  0  0  0  0  0  0
   18.5166   20.5113   26.3406 H   0  0  0  0  0  0  0  0  0  0  0  0
  1  2  1  0  0  0  0
  1  3  1  0  0  0  0
  1  4  1  0  0  0  0
  4  5  1  0  0  0  0
  4  6  1  0  0  0  0
  4  7  1  0  0  0  0
  7  8  1  0  0  0  0
  7  9  1  0  0  0  0
  7 10  1  0  0  0  0
 10 11  1  0  0  0  0
 10 12  1  0  0  0  0
 10 13  1  0  0  0  0
 13 14  1  0  0  0  0
 13 15  1  0  0  0  0
 13 16  1  0  0  0  0
 16 17  1  0  0  0  0
 16 18  1  0  0  0  0
 16 19  1  0  0  0  0
 19 20  1  0  0  0  0
 19 21  1  0  0  0  0
 19 22  1  0  0  0  0
  1 23  1  0  0  0  0
 23 24  1  0  0  0  0
 23 25  1  0  0  0  0
 23 26  1  0  0  0  0
M  END
> <VConfSearch Rank>
17

> <Conf_Id>
82

> <Delta U+W>
1.026

> <U+W>
22.868

> <U>
72.455

> <W>
-49.586

> <W(PB)>
-51.821

> <W(SA)>
2.234

> <Valence>
2.908

> <Coulomb>
69.435

> <VdW>
0.112

> <VdW6>
-7.765

> <VdW12>
7.877

> <Bond>
0.233

> <Angle>
1.170

> <Pdih>
1.506

> <Idih>
0.000

> <Tether>
0.000

$$$$
VeraChem MOL file


 26 25  0  0  0  0  0  0  0  0999 V2000     
   20.5038   18.7657   25.8888 N   0  3  0  0  0  0  0  0  0  0  0  0
   21.4577   18.4748   25.6241 H   0  0  0  0  0  0  0  0  0  0  0  0
   20.0702   17.9314   26.3138 H   0  0  0  0  0  0  0  0  0  0  0  0
   19.7260   19.1900   24.6595 C   0  0  0  0  0  0  0  0  0  0  0  0
   20.2190   20.0706   24.2407 H   0  0  0  0  0  0  0  0  0  0  0  0
   18.7214   19.4770   24.9801 H   0  0  0  0  0  0  0  0  0  0  0  0
   19.6326   18.0881   23.5870 C   0  0  0  0  0  0  0  0  0  0  0  0
   20.6414   17.7886   23.2753 H   0  0  0  0  0  0  0  0  0  0  0  0
   19.1684   17.1959   24.0276 H   0  0  0  0  0  0  0  0  0  0  0  0
   18.8049   18.5248   22.3527 C   0  0  0  0  0  0  0  0  0  0  0  0
   17.7665   18.7004   22.6661 H   0  0  0  0  0  0  0  0  0  0  0  0
   18.7608   17.6928   21.6373 H   0  0  0  0  0  0  0  0  0  0  0  0
   19.3274   19.7990   21.6355 C   0  0  0  0  0  0  0  0  0  0  0  0
   18.6812   20.0043   20.7709 H   0  0  0  0  0  0  0  0  0  0  0  0
   19.2126   20.6653   22.3008 H   0  0  0  0  0  0  0  0  0  0  0  0
   20.7990   19.7282   21.1539 C   0  0  0  0  0  0  0  0  0  0  0  0
   21.4758   19.6294   22.0131 H   0  0  0  0  0  0  0  0  0  0  0  0
   21.0574   20.6837   20.6764 H   0  0  0  0  0  0  0  0  0  0  0  0
   21.0608   18.5834   20.1490 C   0  0  0  0  0  0  0  0  0  0  0  0
   20.9208   17.5997   20.6138 H   0  0  0  0  0  0  0  0  0  0  0  0
   22.0917   18.6284   19.7746 H   0  0  0  0  0  0  0  0  0  0  0  0
   20.3868   18.6547   19.2855 H   0  0  0  0  0  0  0  0  0  0  0  0
   20.5534   19.9108   26.8907 C   0  0  0  0  0  0  0  0  0  0  0  0
   19.5350   20.1787   27.1806 H   0  0  0  0  0  0  0  0  0  0  0  0
   21.1158   19.5922   27.7712 H   0  0  0  0  0  0  0  0  0  0  0  0
   21.0453   20.7702   26.4299 H   0  0  0  0  0  0  0  0  0  0  0  0
  1  2  1  0  0  0  0
  1  3  1  0  0  0  0
  1  4  1  0  0  0  0
  4  5  1  0  0  0  0
  4  6  1  0  0  0  0
  4  7  1  0  0  0  0
  7  8  1  0  0  0  0
  7  9  1  0  0  0  0
  7 10  1  0  0  0  0
 10 11  1  0  0  0  0
 10 12  1  0  0  0  0
 10 13  1  0  0  0  0
 13 14  1  0  0  0  0
 13 15  1  0  0  0  0
 13 16  1  0  0  0  0
 16 17  1  0  0  0  0
 16 18  1  0  0  0  0
 16 19  1  0  0  0  0
 19 20  1  0  0  0  0
 19 21  1  0  0  0  0
 19 22  1  0  0  0  0
  1 23  1  0  0  0  0
 23 24  1  0  0  0  0
 23 25  1  0  0  0  0
 23 26  1  0  0  0  0
M  END
> <VConfSearch Rank>
18

> <Conf_Id>
71

> <Delta U+W>
1.096

> <U+W>
22.938

> <U>
72.455

> <W>
-49.517

> <W(PB)>
-51.795

> <W(SA)>
2.278

> <Valence>
2.908

> <Coulomb>
69.435

> <VdW>
0.112

> <VdW6>
-7.766

> <VdW12>
7.877

> <Bond>
0.233

> <Angle>
1.170

> <Pdih>
1.506

> <Idih>
0.000

> <Tether>
0.000

$$$$
VeraChem MOL file


 26 25  0  0  0  0  0  0  0  0999 V2000     
   20.6248   19.6439   25.5879 N   0  3  0  0  0  0  0  0  0  0  0  0
   20.7349   20.3049   24.8046 H   0  0  0  0  0  0  0  0  0  0  0  0
   21.4969   19.7245   26.1343 H   0  0  0  0  0  0  0  0  0  0  0  0
   20.4853   18.2265   25.0554 C   0  0  0  0  0  0  0  0  0  0  0  0
   20.3523   17.5617   25.9126 H   0  0  0  0  0  0  0  0  0  0  0  0
   21.4301   17.9644   24.5733 H   0  0  0  0  0  0  0  0  0  0  0  0
   19.3294   18.0132   24.0516 C   0  0  0  0  0  0  0  0  0  0  0  0
   19.3318   16.9626   23.7327 H   0  0  0  0  0  0  0  0  0  0  0  0
   18.3708   18.1705   24.5628 H   0  0  0  0  0  0  0  0  0  0  0  0
   19.3974   18.9263   22.8014 C   0  0  0  0  0  0  0  0  0  0  0  0
   19.3156   19.9789   23.1036 H   0  0  0  0  0  0  0  0  0  0  0  0
   18.5168   18.7180   22.1802 H   0  0  0  0  0  0  0  0  0  0  0  0
   20.6843   18.7182   21.9627 C   0  0  0  0  0  0  0  0  0  0  0  0
   21.5668   18.8969   22.5908 H   0  0  0  0  0  0  0  0  0  0  0  0
   20.7463   17.6716   21.6341 H   0  0  0  0  0  0  0  0  0  0  0  0
   20.7745   19.6518   20.7311 C   0  0  0  0  0  0  0  0  0  0  0  0
   21.7597   19.5209   20.2620 H   0  0  0  0  0  0  0  0  0  0  0  0
   20.7260   20.7009   21.0548 H   0  0  0  0  0  0  0  0  0  0  0  0
   19.6811   19.3833   19.6717 C   0  0  0  0  0  0  0  0  0  0  0  0
   18.6810   19.6225   20.0534 H   0  0  0  0  0  0  0  0  0  0  0  0
   19.6870   18.3322   19.3554 H   0  0  0  0  0  0  0  0  0  0  0  0
   19.8497   20.0022   18.7809 H   0  0  0  0  0  0  0  0  0  0  0  0
   19.4312   20.0268   26.4551 C   0  0  0  0  0  0  0  0  0  0  0  0
   19.5806   21.0368   26.8432 H   0  0  0  0  0  0  0  0  0  0  0  0
   18.5219   19.9960   25.8514 H   0  0  0  0  0  0  0  0  0  0  0  0
   19.3498   19.3212   27.2848 H   0  0  0  0  0  0  0  0  0  0  0  0
  1  2  1  0  0  0  0
  1  3  1  0  0  0  0
  1  4  1  0  0  0  0
  4  5  1  0  0  0  0
  4  6  1  0  0  0  0
  4  7  1  0  0  0  0
  7  8  1  0  0  0  0
  7  9  1  0  0  0  0
  7 10  1  0  0  0  0
 10 11  1  0  0  0  0
 10 12  1  0  0  0  0
 10 13  1  0  0  0  0
 13 14  1  0  0  0  0
 13 15  1  0  0  0  0
 13 16  1  0  0  0  0
 16 17  1  0  0  0  0
 16 18  1  0  0  0  0
 16 19  1  0  0  0  0
 19 20  1  0  0  0  0
 19 21  1  0  0  0  0
 19 22  1  0  0  0  0
  1 23  1  0  0  0  0
 23 24  1  0  0  0  0
 23 25  1  0  0  0  0
 23 26  1  0  0  0  0
M  END
> <VConfSearch Rank>
19

> <Conf_Id>
84

> <Delta U+W>
1.456

> <U+W>
23.298

> <U>
73.042

> <W>
-49.744

> <W(PB)>
-51.966

> <W(SA)>
2.222

> <Valence>
2.938

> <Coulomb>
69.625

> <VdW>
0.478

> <VdW6>
-8.182

> <VdW12>
8.660

> <Bond>
0.253

> <Angle>
1.038

> <Pdih>
1.647

> <Idih>
0.000

> <Tether>
0.000

$$$$
VeraChem MOL file


 26 25  0  0  0  0  0  0  0  0999 V2000     
   20.0234   19.7200   25.5635 N   0  3  0  0  0  0  0  0  0  0  0  0
   20.1043   20.3891   24.7832 H   0  0  0  0  0  0  0  0  0  0  0  0
   20.8954   19.8199   26.1059 H   0  0  0  0  0  0  0  0  0  0  0  0
   19.9036   18.3079   25.0244 C   0  0  0  0  0  0  0  0  0  0  0  0
   18.9697   18.2406   24.4614 H   0  0  0  0  0  0  0  0  0  0  0  0
   19.8333   17.6316   25.8801 H   0  0  0  0  0  0  0  0  0  0  0  0
   21.0845   17.8796   24.1288 C   0  0  0  0  0  0  0  0  0  0  0  0
   22.0100   17.9005   24.7194 H   0  0  0  0  0  0  0  0  0  0  0  0
   20.9368   16.8334   23.8295 H   0  0  0  0  0  0  0  0  0  0  0  0
   21.2652   18.7525   22.8612 C   0  0  0  0  0  0  0  0  0  0  0  0
   22.1326   18.3775   22.3003 H   0  0  0  0  0  0  0  0  0  0  0  0
   21.5121   19.7833   23.1487 H   0  0  0  0  0  0  0  0  0  0  0  0
   20.0239   18.7498   21.9367 C   0  0  0  0  0  0  0  0  0  0  0  0
   19.7664   17.7151   21.6712 H   0  0  0  0  0  0  0  0  0  0  0  0
   19.1577   19.1665   22.4679 H   0  0  0  0  0  0  0  0  0  0  0  0
   20.2664   19.5658   20.6474 C   0  0  0  0  0  0  0  0  0  0  0  0
   21.1254   19.1512   20.1013 H   0  0  0  0  0  0  0  0  0  0  0  0
   20.5264   20.6017   20.9069 H   0  0  0  0  0  0  0  0  0  0  0  0
   19.0267   19.5645   19.7277 C   0  0  0  0  0  0  0  0  0  0  0  0
   18.7620   18.5435   19.4233 H   0  0  0  0  0  0  0  0  0  0  0  0
   19.2184   20.1480   18.8178 H   0  0  0  0  0  0  0  0  0  0  0  0
   18.1586   20.0061   20.2341 H   0  0  0  0  0  0  0  0  0  0  0  0
   18.8142   20.0498   26.4273 C   0  0  0  0  0  0  0  0  0  0  0  0
   18.7673   19.3474   27.2623 H   0  0  0  0  0  0  0  0  0  0  0  0
   18.9130   21.0690   26.8078 H   0  0  0  0  0  0  0  0  0  0  0  0
   17.9080   19.9677   25.8232 H   0  0  0  0  0  0  0  0  0  0  0  0
  1  2  1  0  0  0  0
  1  3  1  0  0  0  0
  1  4  1  0  0  0  0
  4  5  1  0  0  0  0
  4  6  1  0  0  0  0
  4  7  1  0  0  0  0
  7  8  1  0  0  0  0
  7  9  1  0  0  0  0
  7 10  1  0  0  0  0
 10 11  1  0  0  0  0
 10 12  1  0  0  0  0
 10 13  1  0  0  0  0
 13 14  1  0  0  0  0
 13 15  1  0  0  0  0
 13 16  1  0  0  0  0
 16 17  1  0  0  0  0
 16 18  1  0  0  0  0
 16 19  1  0  0  0  0
 19 20  1  0  0  0  0
 19 21  1  0  0  0  0
 19 22  1  0  0  0  0
  1 23  1  0  0  0  0
 23 24  1  0  0  0  0
 23 25  1  0  0  0  0
 23 26  1  0  0  0  0
M  END
> <VConfSearch Rank>
20

> <Conf_Id>
73

> <Delta U+W>
0.884

> <U+W>
22.726

> <U>
71.905

> <W>
-49.179

> <W(PB)>
-51.494

> <W(SA)>
2.315

> <Valence>
2.125

> <Coulomb>
69.686

> <VdW>
0.093

> <VdW6>
-6.766

> <VdW12>
6.859

> <Bond>
0.169

> <Angle>
0.621

> <Pdih>
1.336

> <Idih>
0.000

> <Tether>
0.000

$$$$
VeraChem MOL file


 26 25  0  0  0  0  0  0  0  0999 V2000     
   22.5085   21.1749   23.1379 N   0  3  0  0  0  0  0  0  0  0  0  0
   23.2434   20.4907   23.3761 H   0  0  0  0  0  0  0  0  0  0  0  0
   22.2864   21.6580   24.0223 H   0  0  0  0  0  0  0  0  0  0  0  0
   21.2807   20.4608   22.6093 C   0  0  0  0  0  0  0  0  0  0  0  0
   21.5597   19.9572   21.6803 H   0  0  0  0  0  0  0  0  0  0  0  0
   20.5266   21.2173   22.3779 H   0  0  0  0  0  0  0  0  0  0  0  0
   20.6990   19.4358   23.5998 C   0  0  0  0  0  0  0  0  0  0  0  0
   21.4651   18.6872   23.8423 H   0  0  0  0  0  0  0  0  0  0  0  0
   20.4355   19.9431   24.5374 H   0  0  0  0  0  0  0  0  0  0  0  0
   19.4512   18.7341   23.0193 C   0  0  0  0  0  0  0  0  0  0  0  0
   19.7177   18.2323   22.0785 H   0  0  0  0  0  0  0  0  0  0  0  0
   18.6893   19.4868   22.7727 H   0  0  0  0  0  0  0  0  0  0  0  0
   18.8581   17.7022   24.0056 C   0  0  0  0  0  0  0  0  0  0  0  0
   19.6196   16.9494   24.2521 H   0  0  0  0  0  0  0  0  0  0  0  0
   18.5914   18.2038   24.9462 H   0  0  0  0  0  0  0  0  0  0  0  0
   17.6100   17.0006   23.4247 C   0  0  0  0  0  0  0  0  0  0  0  0
   17.8721   16.4951   22.4846 H   0  0  0  0  0  0  0  0  0  0  0  0
   16.8440   17.7494   23.1787 H   0  0  0  0  0  0  0  0  0  0  0  0
   17.0206   15.9709   24.4122 C   0  0  0  0  0  0  0  0  0  0  0  0
   16.1359   15.4837   23.9822 H   0  0  0  0  0  0  0  0  0  0  0  0
   16.7167   16.4528   25.3507 H   0  0  0  0  0  0  0  0  0  0  0  0
   17.7529   15.1887   24.6512 H   0  0  0  0  0  0  0  0  0  0  0  0
   23.0178   22.1665   22.1010 C   0  0  0  0  0  0  0  0  0  0  0  0
   22.2357   22.8991   21.8901 H   0  0  0  0  0  0  0  0  0  0  0  0
   23.9018   22.6736   22.4942 H   0  0  0  0  0  0  0  0  0  0  0  0
   23.2774   21.6285   21.1866 H   0  0  0  0  0  0  0  0  0  0  0  0
  1  2  1  0  0  0  0
  1  3  1  0  0  0  0
  1  4  1  0  0  0  0
  4  5  1  0  0  0  0
  4  6  1  0  0  0  0
  4  7  1  0  0  0  0
  7  8  1  0  0  0  0
  7  9  1  0  0  0  0
  7 10  1  0  0  0  0
 10 11  1  0  0  0  0
 10 12  1  0  0  0  0
 10 13  1  0  0  0  0
 13 14  1  0  0  0  0
 13 15  1  0  0  0  0
 13 16  1  0  0  0  0
 16 17  1  0  0  0  0
 16 18  1  0  0  0  0
 16 19  1  0  0  0  0
 19 20  1  0  0  0  0
 19 21  1  0  0  0  0
 19 22  1  0  0  0  0
  1 23  1  0  0  0  0
 23 24  1  0  0  0  0
 23 25  1  0  0  0  0
 23 26  1  0  0  0  0
M  END
> <VConfSearch Rank>
21

> <Conf_Id>
11

> <Delta U+W>
0.000

> <U+W>
21.842

> <U>
70.357

> <W>
-48.515

> <W(PB)>
-50.856

> <W(SA)>
2.341

> <Valence>
1.714

> <Coulomb>
68.480

> <VdW>
0.163

> <VdW6>
-5.268

> <VdW12>
5.431

> <Bond>
0.126

> <Angle>
0.350

> <Pdih>
1.238

> <Idih>
0.000

> <Tether>
0.000

$$$$
VeraChem MOL file


 26 25  0  0  0  0  0  0  0  0999 V2000     
   18.5256   17.2222   20.8293 N   0  3  0  0  0  0  0  0  0  0  0  0
   17.5925   16.8375   20.6119 H   0  0  0  0  0  0  0  0  0  0  0  0
   19.1260   16.3962   20.9769 H   0  0  0  0  0  0  0  0  0  0  0  0
   18.4501   18.0508   22.1008 C   0  0  0  0  0  0  0  0  0  0  0  0
   17.9298   17.4486   22.8501 H   0  0  0  0  0  0  0  0  0  0  0  0
   17.8400   18.9331   21.8919 H   0  0  0  0  0  0  0  0  0  0  0  0
   19.8187   18.4814   22.6667 C   0  0  0  0  0  0  0  0  0  0  0  0
   20.4426   17.5921   22.8267 H   0  0  0  0  0  0  0  0  0  0  0  0
   20.3401   19.1136   21.9365 H   0  0  0  0  0  0  0  0  0  0  0  0
   19.6614   19.2524   23.9961 C   0  0  0  0  0  0  0  0  0  0  0  0
   19.1376   18.6201   24.7265 H   0  0  0  0  0  0  0  0  0  0  0  0
   19.0312   20.1379   23.8330 H   0  0  0  0  0  0  0  0  0  0  0  0
   21.0266   19.6889   24.5751 C   0  0  0  0  0  0  0  0  0  0  0  0
   21.6569   18.8036   24.7379 H   0  0  0  0  0  0  0  0  0  0  0  0
   21.5503   20.3215   23.8450 H   0  0  0  0  0  0  0  0  0  0  0  0
   20.8690   20.4600   25.9046 C   0  0  0  0  0  0  0  0  0  0  0  0
   20.3477   19.8304   26.6394 H   0  0  0  0  0  0  0  0  0  0  0  0
   20.2411   21.3481   25.7465 H   0  0  0  0  0  0  0  0  0  0  0  0
   22.2341   20.8943   26.4798 C   0  0  0  0  0  0  0  0  0  0  0  0
   22.1015   21.4399   27.4230 H   0  0  0  0  0  0  0  0  0  0  0  0
   22.7652   21.5538   25.7811 H   0  0  0  0  0  0  0  0  0  0  0  0
   22.8727   20.0243   26.6810 H   0  0  0  0  0  0  0  0  0  0  0  0
   19.0281   18.0553   19.6555 C   0  0  0  0  0  0  0  0  0  0  0  0
   20.0409   18.4040   19.8665 H   0  0  0  0  0  0  0  0  0  0  0  0
   19.0331   17.4371   18.7550 H   0  0  0  0  0  0  0  0  0  0  0  0
   18.3637   18.9102   19.5120 H   0  0  0  0  0  0  0  0  0  0  0  0
  1  2  1  0  0  0  0
  1  3  1  0  0  0  0
  1  4  1  0  0  0  0
  4  5  1  0  0  0  0
  4  6  1  0  0  0  0
  4  7  1  0  0  0  0
  7  8  1  0  0  0  0
  7  9  1  0  0  0  0
  7 10  1  0  0  0  0
 10 11  1  0  0  0  0
 10 12  1  0  0  0  0
 10 13  1  0  0  0  0
 13 14  1  0  0  0  0
 13 15  1  0  0  0  0
 13 16  1  0  0  0  0
 16 17  1  0  0  0  0
 16 18  1  0  0  0  0
 16 19  1  0  0  0  0
 19 20  1  0  0  0  0
 19 21  1  0  0  0  0
 19 22  1  0  0  0  0
  1 23  1  0  0  0  0
 23 24  1  0  0  0  0
 23 25  1  0  0  0  0
 23 26  1  0  0  0  0
M  END
> <VConfSearch Rank>
22

> <Conf_Id>
102

> <Delta U+W>
0.121

> <U+W>
21.963

> <U>
70.745

> <W>
-48.782

> <W(PB)>
-51.111

> <W(SA)>
2.329

> <Valence>
1.993

> <Coulomb>
68.323

> <VdW>
0.429

> <VdW6>
-5.973

> <VdW12>
6.402

> <Bond>
0.161

> <Angle>
0.472

> <Pdih>
1.360

> <Idih>
0.000

> <Tether>
0.000

$$$$
VeraChem MOL file


 26 25  0  0  0  0  0  0  0  0999 V2000     
   17.1951   20.3996   24.3450 N   0  3  0  0  0  0  0  0  0  0  0  0
   17.5817   21.3501   24.4520 H   0  0  0  0  0  0  0  0  0  0  0  0
   16.5405   20.2880   25.1357 H   0  0  0  0  0  0  0  0  0  0  0  0
   18.3038   19.3661   24.4534 C   0  0  0  0  0  0  0  0  0  0  0  0
   17.8609   18.3795   24.2959 H   0  0  0  0  0  0  0  0  0  0  0  0
   18.6862   19.4065   25.4765 H   0  0  0  0  0  0  0  0  0  0  0  0
   19.4748   19.5781   23.4724 C   0  0  0  0  0  0  0  0  0  0  0  0
   19.1108   19.5089   22.4392 H   0  0  0  0  0  0  0  0  0  0  0  0
   19.8813   20.5896   23.6038 H   0  0  0  0  0  0  0  0  0  0  0  0
   20.5926   18.5354   23.6955 C   0  0  0  0  0  0  0  0  0  0  0  0
   20.1803   17.5244   23.5695 H   0  0  0  0  0  0  0  0  0  0  0  0
   20.9558   18.6035   24.7305 H   0  0  0  0  0  0  0  0  0  0  0  0
   21.7736   18.7374   22.7189 C   0  0  0  0  0  0  0  0  0  0  0  0
   21.4108   18.6690   21.6839 H   0  0  0  0  0  0  0  0  0  0  0  0
   22.1857   19.7483   22.8445 H   0  0  0  0  0  0  0  0  0  0  0  0
   22.8915   17.6945   22.9423 C   0  0  0  0  0  0  0  0  0  0  0  0
   22.4847   16.6814   22.8155 H   0  0  0  0  0  0  0  0  0  0  0  0
   23.2598   17.7607   23.9758 H   0  0  0  0  0  0  0  0  0  0  0  0
   24.0689   17.8992   21.9653 C   0  0  0  0  0  0  0  0  0  0  0  0
   23.7381   17.8045   20.9228 H   0  0  0  0  0  0  0  0  0  0  0  0
   24.8520   17.1499   22.1394 H   0  0  0  0  0  0  0  0  0  0  0  0
   24.5192   18.8924   22.0921 H   0  0  0  0  0  0  0  0  0  0  0  0
   16.4414   20.2657   23.0266 C   0  0  0  0  0  0  0  0  0  0  0  0
   16.0286   19.2574   22.9501 H   0  0  0  0  0  0  0  0  0  0  0  0
   15.6316   20.9983   23.0021 H   0  0  0  0  0  0  0  0  0  0  0  0
   17.1273   20.4495   22.1973 H   0  0  0  0  0  0  0  0  0  0  0  0
  1  2  1  0  0  0  0
  1  3  1  0  0  0  0
  1  4  1  0  0  0  0
  4  5  1  0  0  0  0
  4  6  1  0  0  0  0
  4  7  1  0  0  0  0
  7  8  1  0  0  0  0
  7  9  1  0  0  0  0
  7 10  1  0  0  0  0
 10 11  1  0  0  0  0
 10 12  1  0  0  0  0
 10 13  1  0  0  0  0
 13 14  1  0  0  0  0
 13 15  1  0  0  0  0
 13 16  1  0  0  0  0
 16 17  1  0  0  0  0
 16 18  1  0  0  0  0
 16 19  1  0  0  0  0
 19 20  1  0  0  0  0
 19 21  1  0  0  0  0
 19 22  1  0  0  0  0
  1 23  1  0  0  0  0
 23 24  1  0  0  0  0
 23 25  1  0  0  0  0
 23 26  1  0  0  0  0
M  END
> <VConfSearch Rank>
23

> <Conf_Id>
37

> <Delta U+W>
0.125

> <U+W>
21.967

> <U>
70.745

> <W>
-48.778

> <W(PB)>
-51.115

> <W(SA)>
2.337

> <Valence>
1.993

> <Coulomb>
68.323

> <VdW>
0.429

> <VdW6>
-5.973

> <VdW12>
6.403

> <Bond>
0.161

> <Angle>
0.472

> <Pdih>
1.360

> <Idih>
0.000

> <Tether>
0.000

$$$$
VeraChem MOL file


 26 25  0  0  0  0  0  0  0  0999 V2000     
   17.0472   18.6116   23.0007 N   0  3  0  0  0  0  0  0  0  0  0  0
   16.5208   19.1736   23.6876 H   0  0  0  0  0  0  0  0  0  0  0  0
   17.0423   17.6490   23.3723 H   0  0  0  0  0  0  0  0  0  0  0  0
   18.4697   19.1215   22.8880 C   0  0  0  0  0  0  0  0  0  0  0  0
   18.4301   20.1434   22.5025 H   0  0  0  0  0  0  0  0  0  0  0  0
   18.9895   18.4973   22.1575 H   0  0  0  0  0  0  0  0  0  0  0  0
   19.2310   19.1024   24.2276 C   0  0  0  0  0  0  0  0  0  0  0  0
   18.6727   19.6948   24.9646 H   0  0  0  0  0  0  0  0  0  0  0  0
   19.2716   18.0757   24.6153 H   0  0  0  0  0  0  0  0  0  0  0  0
   20.6651   19.6711   24.1109 C   0  0  0  0  0  0  0  0  0  0  0  0
   21.0953   19.7270   25.1193 H   0  0  0  0  0  0  0  0  0  0  0  0
   20.6207   20.7022   23.7336 H   0  0  0  0  0  0  0  0  0  0  0  0
   21.5852   18.8192   23.1994 C   0  0  0  0  0  0  0  0  0  0  0  0
   21.6456   17.7935   23.5888 H   0  0  0  0  0  0  0  0  0  0  0  0
   21.1421   18.7436   22.1977 H   0  0  0  0  0  0  0  0  0  0  0  0
   23.0129   19.3991   23.0507 C   0  0  0  0  0  0  0  0  0  0  0  0
   22.9594   20.4214   22.6507 H   0  0  0  0  0  0  0  0  0  0  0  0
   23.5575   18.8055   22.3031 H   0  0  0  0  0  0  0  0  0  0  0  0
   23.8202   19.3978   24.3691 C   0  0  0  0  0  0  0  0  0  0  0  0
   23.3846   20.0787   25.1106 H   0  0  0  0  0  0  0  0  0  0  0  0
   24.8519   19.7259   24.1877 H   0  0  0  0  0  0  0  0  0  0  0  0
   23.8606   18.3919   24.8067 H   0  0  0  0  0  0  0  0  0  0  0  0
   16.3696   18.6615   21.6383 C   0  0  0  0  0  0  0  0  0  0  0  0
   16.9247   18.0338   20.9377 H   0  0  0  0  0  0  0  0  0  0  0  0
   15.3461   18.2919   21.7335 H   0  0  0  0  0  0  0  0  0  0  0  0
   16.3572   19.6936   21.2809 H   0  0  0  0  0  0  0  0  0  0  0  0
  1  2  1  0  0  0  0
  1  3  1  0  0  0  0
  1  4  1  0  0  0  0
  4  5  1  0  0  0  0
  4  6  1  0  0  0  0
  4  7  1  0  0  0  0
  7  8  1  0  0  0  0
  7  9  1  0  0  0  0
  7 10  1  0  0  0  0
 10 11  1  0  0  0  0
 10 12  1  0  0  0  0
 10 13  1  0  0  0  0
 13 14  1  0  0  0  0
 13 15  1  0  0  0  0
 13 16  1  0  0  0  0
 16 17  1  0  0  0  0
 16 18  1  0  0  0  0
 16 19  1  0  0  0  0
 19 20  1  0  0  0  0
 19 21  1  0  0  0  0
 19 22  1  0  0  0  0
  1 23  1  0  0  0  0
 23 24  1  0  0  0  0
 23 25  1  0  0  0  0
 23 26  1  0  0  0  0
M  END
> <VConfSearch Rank>
24

> <Conf_Id>
137

> <Delta U+W>
1.038

> <U+W>
22.880

> <U>
71.810

> <W>
-48.930

> <W(PB)>
-51.257

> <W(SA)>
2.327

> <Valence>
2.568

> <Coulomb>
68.877

> <VdW>
0.364

> <VdW6>
-6.470

> <VdW12>
6.834

> <Bond>
0.191

> <Angle>
0.752

> <Pdih>
1.626

> <Idih>
0.000

> <Tether>
0.000

$$$$
VeraChem MOL file


 26 25  0  0  0  0  0  0  0  0999 V2000     
   18.1860   21.3455   23.5153 N   0  3  0  0  0  0  0  0  0  0  0  0
   17.6410   20.8967   22.7627 H   0  0  0  0  0  0  0  0  0  0  0  0
   18.8018   22.0243   23.0411 H   0  0  0  0  0  0  0  0  0  0  0  0
   19.0153   20.3109   24.2492 C   0  0  0  0  0  0  0  0  0  0  0  0
   18.3283   19.6092   24.7289 H   0  0  0  0  0  0  0  0  0  0  0  0
   19.5808   20.8268   25.0293 H   0  0  0  0  0  0  0  0  0  0  0  0
   19.9826   19.5424   23.3306 C   0  0  0  0  0  0  0  0  0  0  0  0
   19.4054   19.0447   22.5412 H   0  0  0  0  0  0  0  0  0  0  0  0
   20.6601   20.2529   22.8386 H   0  0  0  0  0  0  0  0  0  0  0  0
   20.8065   18.5020   24.1255 C   0  0  0  0  0  0  0  0  0  0  0  0
   20.1316   17.7620   24.5778 H   0  0  0  0  0  0  0  0  0  0  0  0
   21.3107   19.0090   24.9601 H   0  0  0  0  0  0  0  0  0  0  0  0
   21.8769   17.7760   23.2736 C   0  0  0  0  0  0  0  0  0  0  0  0
   22.5626   18.5146   22.8357 H   0  0  0  0  0  0  0  0  0  0  0  0
   22.4854   17.1490   23.9401 H   0  0  0  0  0  0  0  0  0  0  0  0
   21.2817   16.8887   22.1544 C   0  0  0  0  0  0  0  0  0  0  0  0
   20.7339   17.5067   21.4308 H   0  0  0  0  0  0  0  0  0  0  0  0
   20.5568   16.1840   22.5853 H   0  0  0  0  0  0  0  0  0  0  0  0
   22.3795   16.1003   21.4086 C   0  0  0  0  0  0  0  0  0  0  0  0
   23.1044   16.7793   20.9409 H   0  0  0  0  0  0  0  0  0  0  0  0
   21.9408   15.4791   20.6170 H   0  0  0  0  0  0  0  0  0  0  0  0
   22.9246   15.4374   22.0931 H   0  0  0  0  0  0  0  0  0  0  0  0
   17.2607   22.0564   24.4933 C   0  0  0  0  0  0  0  0  0  0  0  0
   17.8606   22.5509   25.2604 H   0  0  0  0  0  0  0  0  0  0  0  0
   16.6695   22.7985   23.9521 H   0  0  0  0  0  0  0  0  0  0  0  0
   16.5973   21.3235   24.9575 H   0  0  0  0  0  0  0  0  0  0  0  0
  1  2  1  0  0  0  0
  1  3  1  0  0  0  0
  1  4  1  0  0  0  0
  4  5  1  0  0  0  0
  4  6  1  0  0  0  0
  4  7  1  0  0  0  0
  7  8  1  0  0  0  0
  7  9  1  0  0  0  0
  7 10  1  0  0  0  0
 10 11  1  0  0  0  0
 10 12  1  0  0  0  0
 10 13  1  0  0  0  0
 13 14  1  0  0  0  0
 13 15  1  0  0  0  0
 13 16  1  0  0  0  0
 16 17  1  0  0  0  0
 16 18  1  0  0  0  0
 16 19  1  0  0  0  0
 19 20  1  0  0  0  0
 19 21  1  0  0  0  0
 19 22  1  0  0  0  0
  1 23  1  0  0  0  0
 23 24  1  0  0  0  0
 23 25  1  0  0  0  0
 23 26  1  0  0  0  0
M  END
> <VConfSearch Rank>
25

> <Conf_Id>
35

> <Delta U+W>
0.670

> <U+W>
22.512

> <U>
71.348

> <W>
-48.837

> <W(PB)>
-51.150

> <W(SA)>
2.313

> <Valence>
2.262

> <Coulomb>
68.807

> <VdW>
0.280

> <VdW6>
-5.915

> <VdW12>
6.195

> <Bond>
0.164

> <Angle>
0.622

> <Pdih>
1.475

> <Idih>
0.000

> <Tether>
0.000

$$$$
VeraChem MOL file


 26 25  0  0  0  0  0  0  0  0999 V2000     
   17.6655   18.5979   25.0430 N   0  3  0  0  0  0  0  0  0  0  0  0
   17.9442   19.2879   25.7579 H   0  0  0  0  0  0  0  0  0  0  0  0
   18.1151   17.7131   25.3254 H   0  0  0  0  0  0  0  0  0  0  0  0
   18.1667   19.0273   23.6786 C   0  0  0  0  0  0  0  0  0  0  0  0
   17.6741   19.9685   23.4217 H   0  0  0  0  0  0  0  0  0  0  0  0
   17.8590   18.2688   22.9544 H   0  0  0  0  0  0  0  0  0  0  0  0
   19.6942   19.2093   23.6204 C   0  0  0  0  0  0  0  0  0  0  0  0
   20.0004   19.9603   24.3608 H   0  0  0  0  0  0  0  0  0  0  0  0
   20.1770   18.2640   23.8983 H   0  0  0  0  0  0  0  0  0  0  0  0
   20.1552   19.6495   22.2108 C   0  0  0  0  0  0  0  0  0  0  0  0
   19.5989   20.5514   21.9193 H   0  0  0  0  0  0  0  0  0  0  0  0
   19.8925   18.8753   21.4764 H   0  0  0  0  0  0  0  0  0  0  0  0
   21.6705   19.9571   22.1213 C   0  0  0  0  0  0  0  0  0  0  0  0
   21.8831   20.3710   21.1258 H   0  0  0  0  0  0  0  0  0  0  0  0
   21.9301   20.7438   22.8431 H   0  0  0  0  0  0  0  0  0  0  0  0
   22.5694   18.7192   22.3530 C   0  0  0  0  0  0  0  0  0  0  0  0
   22.2757   17.9132   21.6660 H   0  0  0  0  0  0  0  0  0  0  0  0
   22.4312   18.3350   23.3723 H   0  0  0  0  0  0  0  0  0  0  0  0
   24.0620   19.0520   22.1421 C   0  0  0  0  0  0  0  0  0  0  0  0
   24.2484   19.4015   21.1183 H   0  0  0  0  0  0  0  0  0  0  0  0
   24.6850   18.1645   22.3132 H   0  0  0  0  0  0  0  0  0  0  0  0
   24.3936   19.8351   22.8363 H   0  0  0  0  0  0  0  0  0  0  0  0
   16.1514   18.4418   25.0131 C   0  0  0  0  0  0  0  0  0  0  0  0
   15.8830   17.6839   24.2739 H   0  0  0  0  0  0  0  0  0  0  0  0
   15.8036   18.1325   26.0014 H   0  0  0  0  0  0  0  0  0  0  0  0
   15.6969   19.3980   24.7447 H   0  0  0  0  0  0  0  0  0  0  0  0
  1  2  1  0  0  0  0
  1  3  1  0  0  0  0
  1  4  1  0  0  0  0
  4  5  1  0  0  0  0
  4  6  1  0  0  0  0
  4  7  1  0  0  0  0
  7  8  1  0  0  0  0
  7  9  1  0  0  0  0
  7 10  1  0  0  0  0
 10 11  1  0  0  0  0
 10 12  1  0  0  0  0
 10 13  1  0  0  0  0
 13 14  1  0  0  0  0
 13 15  1  0  0  0  0
 13 16  1  0  0  0  0
 16 17  1  0  0  0  0
 16 18  1  0  0  0  0
 16 19  1  0  0  0  0
 19 20  1  0  0  0  0
 19 21  1  0  0  0  0
 19 22  1  0  0  0  0
  1 23  1  0  0  0  0
 23 24  1  0  0  0  0
 23 25  1  0  0  0  0
 23 26  1  0  0  0  0
M  END
> <VConfSearch Rank>
26

> <Conf_Id>
36

> <Delta U+W>
0.662

> <U+W>
22.504

> <U>
71.348

> <W>
-48.844

> <W(PB)>
-51.157

> <W(SA)>
2.313

> <Valence>
2.262

> <Coulomb>
68.807

> <VdW>
0.280

> <VdW6>
-5.916

> <VdW12>
6.195

> <Bond>
0.164

> <Angle>
0.622

> <Pdih>
1.475

> <Idih>
0.000

> <Tether>
0.000

$$$$
VeraChem MOL file


 26 25  0  0  0  0  0  0  0  0999 V2000     
   19.3311   20.7580   25.6819 N   0  3  0  0  0  0  0  0  0  0  0  0
   18.7256   20.0473   26.1212 H   0  0  0  0  0  0  0  0  0  0  0  0
   18.7180   21.5688   25.5039 H   0  0  0  0  0  0  0  0  0  0  0  0
   19.8939   20.2315   24.3771 C   0  0  0  0  0  0  0  0  0  0  0  0
   20.5299   19.3745   24.6109 H   0  0  0  0  0  0  0  0  0  0  0  0
   20.5179   21.0153   23.9405 H   0  0  0  0  0  0  0  0  0  0  0  0
   18.8057   19.8140   23.3692 C   0  0  0  0  0  0  0  0  0  0  0  0
   18.1775   19.0277   23.8085 H   0  0  0  0  0  0  0  0  0  0  0  0
   18.1472   20.6714   23.1764 H   0  0  0  0  0  0  0  0  0  0  0  0
   19.3931   19.3202   22.0259 C   0  0  0  0  0  0  0  0  0  0  0  0
   19.9988   20.1189   21.5753 H   0  0  0  0  0  0  0  0  0  0  0  0
   18.5655   19.1280   21.3291 H   0  0  0  0  0  0  0  0  0  0  0  0
   20.2456   18.0364   22.1702 C   0  0  0  0  0  0  0  0  0  0  0  0
   21.1056   18.2281   22.8258 H   0  0  0  0  0  0  0  0  0  0  0  0
   19.6474   17.2503   22.6515 H   0  0  0  0  0  0  0  0  0  0  0  0
   20.7553   17.5291   20.8027 C   0  0  0  0  0  0  0  0  0  0  0  0
   21.3540   18.3119   20.3161 H   0  0  0  0  0  0  0  0  0  0  0  0
   19.9021   17.3254   20.1404 H   0  0  0  0  0  0  0  0  0  0  0  0
   21.6067   16.2496   20.9479 C   0  0  0  0  0  0  0  0  0  0  0  0
   22.4879   16.4307   21.5770 H   0  0  0  0  0  0  0  0  0  0  0  0
   21.9587   15.9048   19.9669 H   0  0  0  0  0  0  0  0  0  0  0  0
   21.0242   15.4370   21.4012 H   0  0  0  0  0  0  0  0  0  0  0  0
   20.4681   21.1436   26.6182 C   0  0  0  0  0  0  0  0  0  0  0  0
   21.0748   21.9194   26.1460 H   0  0  0  0  0  0  0  0  0  0  0  0
   20.0492   21.5213   27.5536 H   0  0  0  0  0  0  0  0  0  0  0  0
   21.0829   20.2633   26.8182 H   0  0  0  0  0  0  0  0  0  0  0  0
  1  2  1  0  0  0  0
  1  3  1  0  0  0  0
  1  4  1  0  0  0  0
  4  5  1  0  0  0  0
  4  6  1  0  0  0  0
  4  7  1  0  0  0  0
  7  8  1  0  0  0  0
  7  9  1  0  0  0  0
  7 10  1  0  0  0  0
 10 11  1  0  0  0  0
 10 12  1  0  0  0  0
 10 13  1  0  0  0  0
 13 14  1  0  0  0  0
 13 15  1  0  0  0  0
 13 16  1  0  0  0  0
 16 17  1  0  0  0  0
 16 18  1  0  0  0  0
 16 19  1  0  0  0  0
 19 20  1  0  0  0  0
 19 21  1  0  0  0  0
 19 22  1  0  0  0  0
  1 23  1  0  0  0  0
 23 24  1  0  0  0  0
 23 25  1  0  0  0  0
 23 26  1  0  0  0  0
M  END
> <VConfSearch Rank>
27

> <Conf_Id>
46

> <Delta U+W>
0.496

> <U+W>
22.338

> <U>
71.138

> <W>
-48.799

> <W(PB)>
-51.136

> <W(SA)>
2.337

> <Valence>
2.016

> <Coulomb>
68.932

> <VdW>
0.190

> <VdW6>
-5.902

> <VdW12>
6.092

> <Bond>
0.149

> <Angle>
0.477

> <Pdih>
1.390

> <Idih>
0.000

> <Tether>
0.000

$$$$
VeraChem MOL file


 26 25  0  0  0  0  0  0  0  0999 V2000     
   19.1209   16.5204   24.6437 N   0  3  0  0  0  0  0  0  0  0  0  0
   19.0100   16.5515   25.6692 H   0  0  0  0  0  0  0  0  0  0  0  0
   19.9982   16.0031   24.4781 H   0  0  0  0  0  0  0  0  0  0  0  0
   19.2290   17.9255   24.0866 C   0  0  0  0  0  0  0  0  0  0  0  0
   18.2873   18.4409   24.2915 H   0  0  0  0  0  0  0  0  0  0  0  0
   19.3499   17.8455   23.0037 H   0  0  0  0  0  0  0  0  0  0  0  0
   20.4002   18.7290   24.6842 C   0  0  0  0  0  0  0  0  0  0  0  0
   20.2906   18.7646   25.7763 H   0  0  0  0  0  0  0  0  0  0  0  0
   21.3463   18.2102   24.4799 H   0  0  0  0  0  0  0  0  0  0  0  0
   20.4722   20.1751   24.1396 C   0  0  0  0  0  0  0  0  0  0  0  0
   21.2681   20.7131   24.6730 H   0  0  0  0  0  0  0  0  0  0  0  0
   19.5347   20.7003   24.3697 H   0  0  0  0  0  0  0  0  0  0  0  0
   20.7466   20.2390   22.6176 C   0  0  0  0  0  0  0  0  0  0  0  0
   21.6668   19.6846   22.3867 H   0  0  0  0  0  0  0  0  0  0  0  0
   19.9327   19.7474   22.0681 H   0  0  0  0  0  0  0  0  0  0  0  0
   20.8857   21.6950   22.1199 C   0  0  0  0  0  0  0  0  0  0  0  0
   21.7038   22.1949   22.6572 H   0  0  0  0  0  0  0  0  0  0  0  0
   19.9679   22.2547   22.3490 H   0  0  0  0  0  0  0  0  0  0  0  0
   21.1577   21.7576   20.6017 C   0  0  0  0  0  0  0  0  0  0  0  0
   22.0883   21.2346   20.3453 H   0  0  0  0  0  0  0  0  0  0  0  0
   21.2537   22.7988   20.2676 H   0  0  0  0  0  0  0  0  0  0  0  0
   20.3389   21.2962   20.0343 H   0  0  0  0  0  0  0  0  0  0  0  0
   17.9452   15.7975   24.0012 C   0  0  0  0  0  0  0  0  0  0  0  0
   17.8784   14.7873   24.4112 H   0  0  0  0  0  0  0  0  0  0  0  0
   17.0252   16.3449   24.2177 H   0  0  0  0  0  0  0  0  0  0  0  0
   18.1009   15.7477   22.9212 H   0  0  0  0  0  0  0  0  0  0  0  0
  1  2  1  0  0  0  0
  1  3  1  0  0  0  0
  1  4  1  0  0  0  0
  4  5  1  0  0  0  0
  4  6  1  0  0  0  0
  4  7  1  0  0  0  0
  7  8  1  0  0  0  0
  7  9  1  0  0  0  0
  7 10  1  0  0  0  0
 10 11  1  0  0  0  0
 10 12  1  0  0  0  0
 10 13  1  0  0  0  0
 13 14  1  0  0  0  0
 13 15  1  0  0  0  0
 13 16  1  0  0  0  0
 16 17  1  0  0  0  0
 16 18  1  0  0  0  0
 16 19  1  0  0  0  0
 19 20  1  0  0  0  0
 19 21  1  0  0  0  0
 19 22  1  0  0  0  0
  1 23  1  0  0  0  0
 23 24  1  0  0  0  0
 23 25  1  0  0  0  0
 23 26  1  0  0  0  0
M  END
> <VConfSearch Rank>
28

> <Conf_Id>
45

> <Delta U+W>
0.471

> <U+W>
22.313

> <U>
71.138

> <W>
-48.825

> <W(PB)>
-51.169

> <W(SA)>
2.344

> <Valence>
2.016

> <Coulomb>
68.932

> <VdW>
0.190

> <VdW6>
-5.902

> <VdW12>
6.092

> <Bond>
0.149

> <Angle>
0.477

> <Pdih>
1.390

> <Idih>
0.000

> <Tether>
0.000

$$$$
VeraChem MOL file


 26 25  0  0  0  0  0  0  0  0999 V2000     
   21.7987   18.0433   21.6456 N   0  3  0  0  0  0  0  0  0  0  0  0
   22.2620   18.8175   22.1448 H   0  0  0  0  0  0  0  0  0  0  0  0
   21.2502   18.4880   20.8933 H   0  0  0  0  0  0  0  0  0  0  0  0
   20.8783   17.2928   22.5888 C   0  0  0  0  0  0  0  0  0  0  0  0
   21.4925   16.8451   23.3741 H   0  0  0  0  0  0  0  0  0  0  0  0
   20.4099   16.4856   22.0200 H   0  0  0  0  0  0  0  0  0  0  0  0
   19.7837   18.1723   23.2244 C   0  0  0  0  0  0  0  0  0  0  0  0
   19.1722   18.6152   22.4282 H   0  0  0  0  0  0  0  0  0  0  0  0
   19.1171   17.5265   23.8113 H   0  0  0  0  0  0  0  0  0  0  0  0
   20.3660   19.2774   24.1410 C   0  0  0  0  0  0  0  0  0  0  0  0
   20.9631   19.9837   23.5488 H   0  0  0  0  0  0  0  0  0  0  0  0
   21.0563   18.8163   24.8612 H   0  0  0  0  0  0  0  0  0  0  0  0
   19.2853   20.0584   24.9286 C   0  0  0  0  0  0  0  0  0  0  0  0
   18.6995   19.3600   25.5423 H   0  0  0  0  0  0  0  0  0  0  0  0
   19.7885   20.7371   25.6311 H   0  0  0  0  0  0  0  0  0  0  0  0
   18.3362   20.8822   24.0261 C   0  0  0  0  0  0  0  0  0  0  0  0
   17.7656   20.2150   23.3665 H   0  0  0  0  0  0  0  0  0  0  0  0
   18.9242   21.5458   23.3768 H   0  0  0  0  0  0  0  0  0  0  0  0
   17.3484   21.7265   24.8594 C   0  0  0  0  0  0  0  0  0  0  0  0
   16.7244   21.0878   25.4980 H   0  0  0  0  0  0  0  0  0  0  0  0
   16.6815   22.3018   24.2042 H   0  0  0  0  0  0  0  0  0  0  0  0
   17.8818   22.4373   25.5040 H   0  0  0  0  0  0  0  0  0  0  0  0
   22.8323   17.0900   21.0622 C   0  0  0  0  0  0  0  0  0  0  0  0
   22.3199   16.2973   20.5126 H   0  0  0  0  0  0  0  0  0  0  0  0
   23.4882   17.6429   20.3860 H   0  0  0  0  0  0  0  0  0  0  0  0
   23.4203   16.6569   21.8743 H   0  0  0  0  0  0  0  0  0  0  0  0
  1  2  1  0  0  0  0
  1  3  1  0  0  0  0
  1  4  1  0  0  0  0
  4  5  1  0  0  0  0
  4  6  1  0  0  0  0
  4  7  1  0  0  0  0
  7  8  1  0  0  0  0
  7  9  1  0  0  0  0
  7 10  1  0  0  0  0
 10 11  1  0  0  0  0
 10 12  1  0  0  0  0
 10 13  1  0  0  0  0
 13 14  1  0  0  0  0
 13 15  1  0  0  0  0
 13 16  1  0  0  0  0
 16 17  1  0  0  0  0
 16 18  1  0  0  0  0
 16 19  1  0  0  0  0
 19 20  1  0  0  0  0
 19 21  1  0  0  0  0
 19 22  1  0  0  0  0
  1 23  1  0  0  0  0
 23 24  1  0  0  0  0
 23 25  1  0  0  0  0
 23 26  1  0  0  0  0
M  END
> <VConfSearch Rank>
29

> <Conf_Id>
143

> <Delta U+W>
0.915

> <U+W>
22.757

> <U>
71.994

> <W>
-49.237

> <W(PB)>
-51.537

> <W(SA)>
2.300

> <Valence>
2.376

> <Coulomb>
69.315

> <VdW>
0.303

> <VdW6>
-6.508

> <VdW12>
6.810

> <Bond>
0.182

> <Angle>
0.660

> <Pdih>
1.534

> <Idih>
0.000

> <Tether>
0.000

$$$$
VeraChem MOL file


 26 25  0  0  0  0  0  0  0  0999 V2000     
   20.4857   19.3183   20.7611 N   0  3  0  0  0  0  0  0  0  0  0  0
   20.9749   18.4287   20.9411 H   0  0  0  0  0  0  0  0  0  0  0  0
   21.1889   20.0570   20.9173 H   0  0  0  0  0  0  0  0  0  0  0  0
   19.3307   19.4842   21.7300 C   0  0  0  0  0  0  0  0  0  0  0  0
   18.6135   18.6813   21.5421 H   0  0  0  0  0  0  0  0  0  0  0  0
   18.8447   20.4360   21.5008 H   0  0  0  0  0  0  0  0  0  0  0  0
   19.7488   19.4701   23.2137 C   0  0  0  0  0  0  0  0  0  0  0  0
   20.4919   20.2581   23.3937 H   0  0  0  0  0  0  0  0  0  0  0  0
   18.8648   19.7208   23.8127 H   0  0  0  0  0  0  0  0  0  0  0  0
   20.3044   18.0976   23.6662 C   0  0  0  0  0  0  0  0  0  0  0  0
   21.1231   17.7962   22.9997 H   0  0  0  0  0  0  0  0  0  0  0  0
   19.5224   17.3337   23.5536 H   0  0  0  0  0  0  0  0  0  0  0  0
   20.8415   18.0732   25.1209 C   0  0  0  0  0  0  0  0  0  0  0  0
   21.2443   17.0679   25.3069 H   0  0  0  0  0  0  0  0  0  0  0  0
   21.6967   18.7559   25.2193 H   0  0  0  0  0  0  0  0  0  0  0  0
   19.7836   18.3777   26.2131 C   0  0  0  0  0  0  0  0  0  0  0  0
   20.0025   17.7586   27.0945 H   0  0  0  0  0  0  0  0  0  0  0  0
   18.7838   18.0740   25.8727 H   0  0  0  0  0  0  0  0  0  0  0  0
   19.7730   19.8578   26.6623 C   0  0  0  0  0  0  0  0  0  0  0  0
   19.5399   20.5389   25.8367 H   0  0  0  0  0  0  0  0  0  0  0  0
   20.7479   20.1488   27.0745 H   0  0  0  0  0  0  0  0  0  0  0  0
   19.0207   20.0157   27.4459 H   0  0  0  0  0  0  0  0  0  0  0  0
   19.9714   19.3637   19.3290 C   0  0  0  0  0  0  0  0  0  0  0  0
   19.4861   20.3261   19.1521 H   0  0  0  0  0  0  0  0  0  0  0  0
   20.8122   19.2429   18.6423 H   0  0  0  0  0  0  0  0  0  0  0  0
   19.2536   18.5542   19.1793 H   0  0  0  0  0  0  0  0  0  0  0  0
  1  2  1  0  0  0  0
  1  3  1  0  0  0  0
  1  4  1  0  0  0  0
  4  5  1  0  0  0  0
  4  6  1  0  0  0  0
  4  7  1  0  0  0  0
  7  8  1  0  0  0  0
  7  9  1  0  0  0  0
  7 10  1  0  0  0  0
 10 11  1  0  0  0  0
 10 12  1  0  0  0  0
 10 13  1  0  0  0  0
 13 14  1  0  0  0  0
 13 15  1  0  0  0  0
 13 16  1  0  0  0  0
 16 17  1  0  0  0  0
 16 18  1  0  0  0  0
 16 19  1  0  0  0  0
 19 20  1  0  0  0  0
 19 21  1  0  0  0  0
 19 22  1  0  0  0  0
  1 23  1  0  0  0  0
 23 24  1  0  0  0  0
 23 25  1  0  0  0  0
 23 26  1  0  0  0  0
M  END
> <VConfSearch Rank>
30

> <Conf_Id>
76

> <Delta U+W>
3.468

> <U+W>
25.310

> <U>
74.594

> <W>
-49.283

> <W(PB)>
-51.537

> <W(SA)>
2.253

> <Valence>
4.886

> <Coulomb>
69.332

> <VdW>
0.376

> <VdW6>
-7.329

> <VdW12>
7.705

> <Bond>
0.232

> <Angle>
1.251

> <Pdih>
3.403

> <Idih>
0.000

> <Tether>
0.000

$$$$
VeraChem MOL file


 26 25  0  0  0  0  0  0  0  0999 V2000     
   20.2773   17.4092   25.5522 N   0  3  0  0  0  0  0  0  0  0  0  0
   19.8329   18.1959   26.0506 H   0  0  0  0  0  0  0  0  0  0  0  0
   21.2805   17.4668   25.7871 H   0  0  0  0  0  0  0  0  0  0  0  0
   20.0810   17.5592   24.0569 C   0  0  0  0  0  0  0  0  0  0  0  0
   19.0091   17.5002   23.8519 H   0  0  0  0  0  0  0  0  0  0  0  0
   20.5721   16.7141   23.5679 H   0  0  0  0  0  0  0  0  0  0  0  0
   20.6429   18.8789   23.4980 C   0  0  0  0  0  0  0  0  0  0  0  0
   20.1640   19.7201   24.0114 H   0  0  0  0  0  0  0  0  0  0  0  0
   21.7162   18.9396   23.7221 H   0  0  0  0  0  0  0  0  0  0  0  0
   20.4279   18.9794   21.9686 C   0  0  0  0  0  0  0  0  0  0  0  0
   19.3634   18.8616   21.7227 H   0  0  0  0  0  0  0  0  0  0  0  0
   20.9436   18.1320   21.4955 H   0  0  0  0  0  0  0  0  0  0  0  0
   20.9749   20.2932   21.3513 C   0  0  0  0  0  0  0  0  0  0  0  0
   21.8361   20.6569   21.9287 H   0  0  0  0  0  0  0  0  0  0  0  0
   21.3664   20.0636   20.3506 H   0  0  0  0  0  0  0  0  0  0  0  0
   19.9249   21.4226   21.1921 C   0  0  0  0  0  0  0  0  0  0  0  0
   19.1183   21.0848   20.5264 H   0  0  0  0  0  0  0  0  0  0  0  0
   20.4019   22.2722   20.6837 H   0  0  0  0  0  0  0  0  0  0  0  0
   19.3166   21.9203   22.5216 C   0  0  0  0  0  0  0  0  0  0  0  0
   20.1009   22.2032   23.2355 H   0  0  0  0  0  0  0  0  0  0  0  0
   18.6832   21.1524   22.9824 H   0  0  0  0  0  0  0  0  0  0  0  0
   18.6867   22.8024   22.3484 H   0  0  0  0  0  0  0  0  0  0  0  0
   19.6946   16.0830   26.0206 C   0  0  0  0  0  0  0  0  0  0  0  0
   18.6270   16.0588   25.7914 H   0  0  0  0  0  0  0  0  0  0  0  0
   20.2026   15.2653   25.5047 H   0  0  0  0  0  0  0  0  0  0  0  0
   19.8427   15.9875   27.0987 H   0  0  0  0  0  0  0  0  0  0  0  0
  1  2  1  0  0  0  0
  1  3  1  0  0  0  0
  1  4  1  0  0  0  0
  4  5  1  0  0  0  0
  4  6  1  0  0  0  0
  4  7  1  0  0  0  0
  7  8  1  0  0  0  0
  7  9  1  0  0  0  0
  7 10  1  0  0  0  0
 10 11  1  0  0  0  0
 10 12  1  0  0  0  0
 10 13  1  0  0  0  0
 13 14  1  0  0  0  0
 13 15  1  0  0  0  0
 13 16  1  0  0  0  0
 16 17  1  0  0  0  0
 16 18  1  0  0  0  0
 16 19  1  0  0  0  0
 19 20  1  0  0  0  0
 19 21  1  0  0  0  0
 19 22  1  0  0  0  0
  1 23  1  0  0  0  0
 23 24  1  0  0  0  0
 23 25  1  0  0  0  0
 23 26  1  0  0  0  0
M  END
> <VConfSearch Rank>
31

> <Conf_Id>
123

> <Delta U+W>
3.101

> <U+W>
24.943

> <U>
74.070

> <W>
-49.127

> <W(PB)>
-51.421

> <W(SA)>
2.295

> <Valence>
4.690

> <Coulomb>
69.115

> <VdW>
0.266

> <VdW6>
-6.809

> <VdW12>
7.075

> <Bond>
0.212

> <Angle>
1.133

> <Pdih>
3.345

> <Idih>
0.000

> <Tether>
0.000

$$$$
VeraChem MOL file


 26 25  0  0  0  0  0  0  0  0999 V2000     
   22.6954   19.3790   22.9994 N   0  3  0  0  0  0  0  0  0  0  0  0
   23.0426   19.4580   23.9678 H   0  0  0  0  0  0  0  0  0  0  0  0
   22.3132   20.3079   22.7661 H   0  0  0  0  0  0  0  0  0  0  0  0
   21.6018   18.3312   22.9211 C   0  0  0  0  0  0  0  0  0  0  0  0
   22.0507   17.3674   23.1741 H   0  0  0  0  0  0  0  0  0  0  0  0
   21.2534   18.2841   21.8863 H   0  0  0  0  0  0  0  0  0  0  0  0
   20.4079   18.6001   23.8582 C   0  0  0  0  0  0  0  0  0  0  0  0
   19.7333   17.7380   23.8086 H   0  0  0  0  0  0  0  0  0  0  0  0
   20.7635   18.6525   24.8958 H   0  0  0  0  0  0  0  0  0  0  0  0
   19.6451   19.9001   23.4960 C   0  0  0  0  0  0  0  0  0  0  0  0
   19.3695   19.8982   22.4322 H   0  0  0  0  0  0  0  0  0  0  0  0
   20.3231   20.7529   23.6332 H   0  0  0  0  0  0  0  0  0  0  0  0
   18.3862   20.1386   24.3704 C   0  0  0  0  0  0  0  0  0  0  0  0
   18.5219   19.6921   25.3650 H   0  0  0  0  0  0  0  0  0  0  0  0
   18.2890   21.2195   24.5429 H   0  0  0  0  0  0  0  0  0  0  0  0
   17.0573   19.6465   23.7416 C   0  0  0  0  0  0  0  0  0  0  0  0
   16.8795   20.1759   22.7950 H   0  0  0  0  0  0  0  0  0  0  0  0
   16.2305   19.9302   24.4078 H   0  0  0  0  0  0  0  0  0  0  0  0
   16.9942   18.1230   23.4957 C   0  0  0  0  0  0  0  0  0  0  0  0
   17.2250   17.5637   24.4116 H   0  0  0  0  0  0  0  0  0  0  0  0
   17.6966   17.8161   22.7111 H   0  0  0  0  0  0  0  0  0  0  0  0
   15.9887   17.8291   23.1678 H   0  0  0  0  0  0  0  0  0  0  0  0
   23.8303   19.0158   22.0520 C   0  0  0  0  0  0  0  0  0  0  0  0
   23.4450   18.9695   21.0311 H   0  0  0  0  0  0  0  0  0  0  0  0
   24.6099   19.7779   22.1180 H   0  0  0  0  0  0  0  0  0  0  0  0
   24.2393   18.0441   22.3377 H   0  0  0  0  0  0  0  0  0  0  0  0
  1  2  1  0  0  0  0
  1  3  1  0  0  0  0
  1  4  1  0  0  0  0
  4  5  1  0  0  0  0
  4  6  1  0  0  0  0
  4  7  1  0  0  0  0
  7  8  1  0  0  0  0
  7  9  1  0  0  0  0
  7 10  1  0  0  0  0
 10 11  1  0  0  0  0
 10 12  1  0  0  0  0
 10 13  1  0  0  0  0
 13 14  1  0  0  0  0
 13 15  1  0  0  0  0
 13 16  1  0  0  0  0
 16 17  1  0  0  0  0
 16 18  1  0  0  0  0
 16 19  1  0  0  0  0
 19 20  1  0  0  0  0
 19 21  1  0  0  0  0
 19 22  1  0  0  0  0
  1 23  1  0  0  0  0
 23 24  1  0  0  0  0
 23 25  1  0  0  0  0
 23 26  1  0  0  0  0
M  END
> <VConfSearch Rank>
32

> <Conf_Id>
111

> <Delta U+W>
3.383

> <U+W>
25.225

> <U>
74.516

> <W>
-49.292

> <W(PB)>
-51.558

> <W(SA)>
2.266

> <Valence>
4.842

> <Coulomb>
69.333

> <VdW>
0.342

> <VdW6>
-7.369

> <VdW12>
7.711

> <Bond>
0.232

> <Angle>
1.153

> <Pdih>
3.457

> <Idih>
0.000

> <Tether>
0.000

$$$$
VeraChem MOL file


 26 25  0  0  0  0  0  0  0  0999 V2000     
   22.3453   19.0110   23.9076 N   0  3  0  0  0  0  0  0  0  0  0  0
   22.6612   18.0961   24.2651 H   0  0  0  0  0  0  0  0  0  0  0  0
   21.5903   19.3109   24.5424 H   0  0  0  0  0  0  0  0  0  0  0  0
   21.8077   18.8625   22.4978 C   0  0  0  0  0  0  0  0  0  0  0  0
   22.6333   18.5335   21.8616 H   0  0  0  0  0  0  0  0  0  0  0  0
   21.4875   19.8487   22.1539 H   0  0  0  0  0  0  0  0  0  0  0  0
   20.6390   17.8624   22.3774 C   0  0  0  0  0  0  0  0  0  0  0  0
   20.3491   17.7860   21.3210 H   0  0  0  0  0  0  0  0  0  0  0  0
   20.9902   16.8641   22.6704 H   0  0  0  0  0  0  0  0  0  0  0  0
   19.3944   18.2352   23.2225 C   0  0  0  0  0  0  0  0  0  0  0  0
   19.6510   18.2293   24.2901 H   0  0  0  0  0  0  0  0  0  0  0  0
   18.6426   17.4471   23.0855 H   0  0  0  0  0  0  0  0  0  0  0  0
   18.7834   19.6068   22.8374 C   0  0  0  0  0  0  0  0  0  0  0  0
   19.5413   20.3929   22.9515 H   0  0  0  0  0  0  0  0  0  0  0  0
   18.5013   19.6015   21.7755 H   0  0  0  0  0  0  0  0  0  0  0  0
   17.5552   19.9969   23.6954 C   0  0  0  0  0  0  0  0  0  0  0  0
   17.2585   21.0234   23.4383 H   0  0  0  0  0  0  0  0  0  0  0  0
   17.8342   20.0156   24.7582 H   0  0  0  0  0  0  0  0  0  0  0  0
   16.3393   19.0639   23.4930 C   0  0  0  0  0  0  0  0  0  0  0  0
   16.5437   18.0489   23.8552 H   0  0  0  0  0  0  0  0  0  0  0  0
   16.0608   19.0020   22.4330 H   0  0  0  0  0  0  0  0  0  0  0  0
   15.4697   19.4414   24.0464 H   0  0  0  0  0  0  0  0  0  0  0  0
   23.4883   20.0162   23.9238 C   0  0  0  0  0  0  0  0  0  0  0  0
   23.8649   20.1141   24.9444 H   0  0  0  0  0  0  0  0  0  0  0  0
   24.2870   19.6622   23.2683 H   0  0  0  0  0  0  0  0  0  0  0  0
   23.1216   20.9828   23.5715 H   0  0  0  0  0  0  0  0  0  0  0  0
  1  2  1  0  0  0  0
  1  3  1  0  0  0  0
  1  4  1  0  0  0  0
  4  5  1  0  0  0  0
  4  6  1  0  0  0  0
  4  7  1  0  0  0  0
  7  8  1  0  0  0  0
  7  9  1  0  0  0  0
  7 10  1  0  0  0  0
 10 11  1  0  0  0  0
 10 12  1  0  0  0  0
 10 13  1  0  0  0  0
 13 14  1  0  0  0  0
 13 15  1  0  0  0  0
 13 16  1  0  0  0  0
 16 17  1  0  0  0  0
 16 18  1  0  0  0  0
 16 19  1  0  0  0  0
 19 20  1  0  0  0  0
 19 21  1  0  0  0  0
 19 22  1  0  0  0  0
  1 23  1  0  0  0  0
 23 24  1  0  0  0  0
 23 25  1  0  0  0  0
 23 26  1  0  0  0  0
M  END
> <VConfSearch Rank>
33

> <Conf_Id>
126

> <Delta U+W>
1.519

> <U+W>
23.361

> <U>
72.579

> <W>
-49.218

> <W(PB)>
-51.496

> <W(SA)>
2.279

> <Valence>
2.678

> <Coulomb>
69.622

> <VdW>
0.279

> <VdW6>
-7.328

> <VdW12>
7.608

> <Bond>
0.212

> <Angle>
0.911

> <Pdih>
1.555

> <Idih>
0.000

> <Tether>
0.000

$$$$
VeraChem MOL file


 26 25  0  0  0  0  0  0  0  0999 V2000     
   18.2321   17.6227   22.8654 N   0  3  0  0  0  0  0  0  0  0  0  0
   18.1210   18.6364   23.0175 H   0  0  0  0  0  0  0  0  0  0  0  0
   17.8365   17.1714   23.7047 H   0  0  0  0  0  0  0  0  0  0  0  0
   19.7023   17.2775   22.7316 C   0  0  0  0  0  0  0  0  0  0  0  0
   20.0832   17.7689   21.8333 H   0  0  0  0  0  0  0  0  0  0  0  0
   19.7766   16.1971   22.5840 H   0  0  0  0  0  0  0  0  0  0  0  0
   20.5532   17.6870   23.9517 C   0  0  0  0  0  0  0  0  0  0  0  0
   20.1972   17.1418   24.8360 H   0  0  0  0  0  0  0  0  0  0  0  0
   21.5874   17.3569   23.7858 H   0  0  0  0  0  0  0  0  0  0  0  0
   20.5446   19.2077   24.2507 C   0  0  0  0  0  0  0  0  0  0  0  0
   21.1526   19.3807   25.1481 H   0  0  0  0  0  0  0  0  0  0  0  0
   19.5272   19.5339   24.5043 H   0  0  0  0  0  0  0  0  0  0  0  0
   21.0932   20.0632   23.0802 C   0  0  0  0  0  0  0  0  0  0  0  0
   22.1214   19.7547   22.8463 H   0  0  0  0  0  0  0  0  0  0  0  0
   20.5007   19.8733   22.1756 H   0  0  0  0  0  0  0  0  0  0  0  0
   21.0629   21.5851   23.3624 C   0  0  0  0  0  0  0  0  0  0  0  0
   20.0345   21.9021   23.5852 H   0  0  0  0  0  0  0  0  0  0  0  0
   21.3565   22.1183   22.4472 H   0  0  0  0  0  0  0  0  0  0  0  0
   22.0015   22.0187   24.5116 C   0  0  0  0  0  0  0  0  0  0  0  0
   23.0310   21.6845   24.3285 H   0  0  0  0  0  0  0  0  0  0  0  0
   21.6740   21.6124   25.4764 H   0  0  0  0  0  0  0  0  0  0  0  0
   22.0158   23.1125   24.6035 H   0  0  0  0  0  0  0  0  0  0  0  0
   17.4803   17.1840   21.6165 C   0  0  0  0  0  0  0  0  0  0  0  0
   17.8963   17.6985   20.7476 H   0  0  0  0  0  0  0  0  0  0  0  0
   17.5878   16.1040   21.4938 H   0  0  0  0  0  0  0  0  0  0  0  0
   16.4240   17.4394   21.7259 H   0  0  0  0  0  0  0  0  0  0  0  0
  1  2  1  0  0  0  0
  1  3  1  0  0  0  0
  1  4  1  0  0  0  0
  4  5  1  0  0  0  0
  4  6  1  0  0  0  0
  4  7  1  0  0  0  0
  7  8  1  0  0  0  0
  7  9  1  0  0  0  0
  7 10  1  0  0  0  0
 10 11  1  0  0  0  0
 10 12  1  0  0  0  0
 10 13  1  0  0  0  0
 13 14  1  0  0  0  0
 13 15  1  0  0  0  0
 13 16  1  0  0  0  0
 16 17  1  0  0  0  0
 16 18  1  0  0  0  0
 16 19  1  0  0  0  0
 19 20  1  0  0  0  0
 19 21  1  0  0  0  0
 19 22  1  0  0  0  0
  1 23  1  0  0  0  0
 23 24  1  0  0  0  0
 23 25  1  0  0  0  0
 23 26  1  0  0  0  0
M  END
> <VConfSearch Rank>
34

> <Conf_Id>
134

> <Delta U+W>
1.464

> <U+W>
23.306

> <U>
72.579

> <W>
-49.273

> <W(PB)>
-51.540

> <W(SA)>
2.267

> <Valence>
2.677

> <Coulomb>
69.622

> <VdW>
0.280

> <VdW6>
-7.328

> <VdW12>
7.608

> <Bond>
0.212

> <Angle>
0.911

> <Pdih>
1.555

> <Idih>
0.000

> <Tether>
0.000

$$$$
VeraChem MOL file


 26 25  0  0  0  0  0  0  0  0999 V2000     
   20.5109   20.6926   25.5803 N   0  3  0  0  0  0  0  0  0  0  0  0
   21.1376   21.2456   24.9752 H   0  0  0  0  0  0  0  0  0  0  0  0
   21.1328   20.0936   26.1453 H   0  0  0  0  0  0  0  0  0  0  0  0
   19.5878   19.8378   24.7353 C   0  0  0  0  0  0  0  0  0  0  0  0
   18.9540   20.5075   24.1486 H   0  0  0  0  0  0  0  0  0  0  0  0
   18.9493   19.2642   25.4119 H   0  0  0  0  0  0  0  0  0  0  0  0
   20.3383   18.8785   23.7938 C   0  0  0  0  0  0  0  0  0  0  0  0
   20.9893   19.4638   23.1321 H   0  0  0  0  0  0  0  0  0  0  0  0
   20.9858   18.2180   24.3855 H   0  0  0  0  0  0  0  0  0  0  0  0
   19.3550   18.0288   22.9550 C   0  0  0  0  0  0  0  0  0  0  0  0
   18.7330   18.6863   22.3330 H   0  0  0  0  0  0  0  0  0  0  0  0
   18.6619   17.5121   23.6334 H   0  0  0  0  0  0  0  0  0  0  0  0
   20.0534   16.9655   22.0680 C   0  0  0  0  0  0  0  0  0  0  0  0
   20.5785   16.2495   22.7151 H   0  0  0  0  0  0  0  0  0  0  0  0
   19.2831   16.3849   21.5418 H   0  0  0  0  0  0  0  0  0  0  0  0
   21.0560   17.5259   21.0268 C   0  0  0  0  0  0  0  0  0  0  0  0
   21.4827   16.6836   20.4644 H   0  0  0  0  0  0  0  0  0  0  0  0
   21.9030   18.0060   21.5349 H   0  0  0  0  0  0  0  0  0  0  0  0
   20.4164   18.5172   20.0282 C   0  0  0  0  0  0  0  0  0  0  0  0
   19.5542   18.0653   19.5209 H   0  0  0  0  0  0  0  0  0  0  0  0
   21.1426   18.8106   19.2591 H   0  0  0  0  0  0  0  0  0  0  0  0
   20.0794   19.4328   20.5300 H   0  0  0  0  0  0  0  0  0  0  0  0
   19.6909   21.6084   26.4785 C   0  0  0  0  0  0  0  0  0  0  0  0
   19.0609   21.0007   27.1318 H   0  0  0  0  0  0  0  0  0  0  0  0
   20.3675   22.2182   27.0815 H   0  0  0  0  0  0  0  0  0  0  0  0
   19.0661   22.2546   25.8581 H   0  0  0  0  0  0  0  0  0  0  0  0
  1  2  1  0  0  0  0
  1  3  1  0  0  0  0
  1  4  1  0  0  0  0
  4  5  1  0  0  0  0
  4  6  1  0  0  0  0
  4  7  1  0  0  0  0
  7  8  1  0  0  0  0
  7  9  1  0  0  0  0
  7 10  1  0  0  0  0
 10 11  1  0  0  0  0
 10 12  1  0  0  0  0
 10 13  1  0  0  0  0
 13 14  1  0  0  0  0
 13 15  1  0  0  0  0
 13 16  1  0  0  0  0
 16 17  1  0  0  0  0
 16 18  1  0  0  0  0
 16 19  1  0  0  0  0
 19 20  1  0  0  0  0
 19 21  1  0  0  0  0
 19 22  1  0  0  0  0
  1 23  1  0  0  0  0
 23 24  1  0  0  0  0
 23 25  1  0  0  0  0
 23 26  1  0  0  0  0
M  END
> <VConfSearch Rank>
35

> <Conf_Id>
30

> <Delta U+W>
0.910

> <U+W>
22.752

> <U>
71.870

> <W>
-49.118

> <W(PB)>
-51.409

> <W(SA)>
2.290

> <Valence>
2.682

> <Coulomb>
68.933

> <VdW>
0.255

> <VdW6>
-6.833

> <VdW12>
7.088

> <Bond>
0.205

> <Angle>
1.003

> <Pdih>
1.473

> <Idih>
0.000

> <Tether>
0.000

$$$$
VeraChem MOL file


 26 25  0  0  0  0  0  0  0  0999 V2000     
   20.5735   17.2940   21.2405 N   0  3  0  0  0  0  0  0  0  0  0  0
   21.6003   17.2304   21.3209 H   0  0  0  0  0  0  0  0  0  0  0  0
   20.3961   18.0957   20.6156 H   0  0  0  0  0  0  0  0  0  0  0  0
   19.9571   17.5454   22.6020 C   0  0  0  0  0  0  0  0  0  0  0  0
   20.1743   16.6801   23.2332 H   0  0  0  0  0  0  0  0  0  0  0  0
   18.8741   17.6140   22.4723 H   0  0  0  0  0  0  0  0  0  0  0  0
   20.4793   18.8251   23.2799 C   0  0  0  0  0  0  0  0  0  0  0  0
   21.5695   18.7593   23.3940 H   0  0  0  0  0  0  0  0  0  0  0  0
   20.2722   19.6841   22.6292 H   0  0  0  0  0  0  0  0  0  0  0  0
   19.8227   19.0371   24.6642 C   0  0  0  0  0  0  0  0  0  0  0  0
   19.9742   18.1347   25.2727 H   0  0  0  0  0  0  0  0  0  0  0  0
   18.7358   19.1424   24.5476 H   0  0  0  0  0  0  0  0  0  0  0  0
   20.3922   20.2518   25.4423 C   0  0  0  0  0  0  0  0  0  0  0  0
   19.9012   20.3027   26.4239 H   0  0  0  0  0  0  0  0  0  0  0  0
   21.4571   20.0766   25.6486 H   0  0  0  0  0  0  0  0  0  0  0  0
   20.2398   21.6227   24.7348 C   0  0  0  0  0  0  0  0  0  0  0  0
   20.8260   21.6385   23.8062 H   0  0  0  0  0  0  0  0  0  0  0  0
   20.6777   22.3985   25.3784 H   0  0  0  0  0  0  0  0  0  0  0  0
   18.7716   21.9989   24.4316 C   0  0  0  0  0  0  0  0  0  0  0  0
   18.3248   21.3170   23.6974 H   0  0  0  0  0  0  0  0  0  0  0  0
   18.7122   23.0139   24.0181 H   0  0  0  0  0  0  0  0  0  0  0  0
   18.1608   21.9716   25.3433 H   0  0  0  0  0  0  0  0  0  0  0  0
   20.0044   16.0148   20.6425 C   0  0  0  0  0  0  0  0  0  0  0  0
   20.4565   15.8453   19.6627 H   0  0  0  0  0  0  0  0  0  0  0  0
   20.2331   15.1764   21.3041 H   0  0  0  0  0  0  0  0  0  0  0  0
   18.9223   16.1182   20.5365 H   0  0  0  0  0  0  0  0  0  0  0  0
  1  2  1  0  0  0  0
  1  3  1  0  0  0  0
  1  4  1  0  0  0  0
  4  5  1  0  0  0  0
  4  6  1  0  0  0  0
  4  7  1  0  0  0  0
  7  8  1  0  0  0  0
  7  9  1  0  0  0  0
  7 10  1  0  0  0  0
 10 11  1  0  0  0  0
 10 12  1  0  0  0  0
 10 13  1  0  0  0  0
 13 14  1  0  0  0  0
 13 15  1  0  0  0  0
 13 16  1  0  0  0  0
 16 17  1  0  0  0  0
 16 18  1  0  0  0  0
 16 19  1  0  0  0  0
 19 20  1  0  0  0  0
 19 21  1  0  0  0  0
 19 22  1  0  0  0  0
  1 23  1  0  0  0  0
 23 24  1  0  0  0  0
 23 25  1  0  0  0  0
 23 26  1  0  0  0  0
M  END
> <VConfSearch Rank>
36

> <Conf_Id>
29

> <Delta U+W>
0.886

> <U+W>
22.729

> <U>
71.870

> <W>
-49.141

> <W(PB)>
-51.404

> <W(SA)>
2.262

> <Valence>
2.682

> <Coulomb>
68.933

> <VdW>
0.255

> <VdW6>
-6.833

> <VdW12>
7.088

> <Bond>
0.205

> <Angle>
1.003

> <Pdih>
1.473

> <Idih>
0.000

> <Tether>
0.000

$$$$
VeraChem MOL file


 26 25  0  0  0  0  0  0  0  0999 V2000     
   17.7996   20.5353   23.3899 N   0  3  0  0  0  0  0  0  0  0  0  0
   17.1884   20.3853   24.2077 H   0  0  0  0  0  0  0  0  0  0  0  0
   17.4428   19.8994   22.6600 H   0  0  0  0  0  0  0  0  0  0  0  0
   19.2321   20.1832   23.7364 C   0  0  0  0  0  0  0  0  0  0  0  0
   19.5668   20.8689   24.5188 H   0  0  0  0  0  0  0  0  0  0  0  0
   19.8418   20.3525   22.8456 H   0  0  0  0  0  0  0  0  0  0  0  0
   19.4037   18.7287   24.2140 C   0  0  0  0  0  0  0  0  0  0  0  0
   18.7603   18.5587   25.0874 H   0  0  0  0  0  0  0  0  0  0  0  0
   19.0538   18.0395   23.4349 H   0  0  0  0  0  0  0  0  0  0  0  0
   20.8667   18.3949   24.5981 C   0  0  0  0  0  0  0  0  0  0  0  0
   20.9182   17.3547   24.9462 H   0  0  0  0  0  0  0  0  0  0  0  0
   21.1560   19.0101   25.4613 H   0  0  0  0  0  0  0  0  0  0  0  0
   21.9043   18.6148   23.4640 C   0  0  0  0  0  0  0  0  0  0  0  0
   21.9714   19.6865   23.2334 H   0  0  0  0  0  0  0  0  0  0  0  0
   22.8977   18.3315   23.8383 H   0  0  0  0  0  0  0  0  0  0  0  0
   21.6236   17.8366   22.1532 C   0  0  0  0  0  0  0  0  0  0  0  0
   22.4115   18.0792   21.4265 H   0  0  0  0  0  0  0  0  0  0  0  0
   20.6830   18.1795   21.7016 H   0  0  0  0  0  0  0  0  0  0  0  0
   21.5810   16.3038   22.3473 C   0  0  0  0  0  0  0  0  0  0  0  0
   21.4652   15.7967   21.3807 H   0  0  0  0  0  0  0  0  0  0  0  0
   20.7388   16.0015   22.9819 H   0  0  0  0  0  0  0  0  0  0  0  0
   22.5076   15.9388   22.8089 H   0  0  0  0  0  0  0  0  0  0  0  0
   17.7208   21.9821   22.9227 C   0  0  0  0  0  0  0  0  0  0  0  0
   16.6842   22.2231   22.6766 H   0  0  0  0  0  0  0  0  0  0  0  0
   18.0719   22.6375   23.7227 H   0  0  0  0  0  0  0  0  0  0  0  0
   18.3488   22.1086   22.0380 H   0  0  0  0  0  0  0  0  0  0  0  0
  1  2  1  0  0  0  0
  1  3  1  0  0  0  0
  1  4  1  0  0  0  0
  4  5  1  0  0  0  0
  4  6  1  0  0  0  0
  4  7  1  0  0  0  0
  7  8  1  0  0  0  0
  7  9  1  0  0  0  0
  7 10  1  0  0  0  0
 10 11  1  0  0  0  0
 10 12  1  0  0  0  0
 10 13  1  0  0  0  0
 13 14  1  0  0  0  0
 13 15  1  0  0  0  0
 13 16  1  0  0  0  0
 16 17  1  0  0  0  0
 16 18  1  0  0  0  0
 16 19  1  0  0  0  0
 19 20  1  0  0  0  0
 19 21  1  0  0  0  0
 19 22  1  0  0  0  0
  1 23  1  0  0  0  0
 23 24  1  0  0  0  0
 23 25  1  0  0  0  0
 23 26  1  0  0  0  0
M  END
> <VConfSearch Rank>
37

> <Conf_Id>
82

> <Delta U+W>
1.026

> <U+W>
22.868

> <U>
72.455

> <W>
-49.586

> <W(PB)>
-51.821

> <W(SA)>
2.234

> <Valence>
2.908

> <Coulomb>
69.435

> <VdW>
0.112

> <VdW6>
-7.765

> <VdW12>
7.877

> <Bond>
0.233

> <Angle>
1.170

> <Pdih>
1.506

> <Idih>
0.000

> <Tether>
0.000

$$$$
VeraChem MOL file


 26 25  0  0  0  0  0  0  0  0999 V2000     
   18.5107   21.1813   23.4707 N   0  3  0  0  0  0  0  0  0  0  0  0
   19.3011   21.7150   23.0770 H   0  0  0  0  0  0  0  0  0  0  0  0
   18.3638   21.5657   24.4169 H   0  0  0  0  0  0  0  0  0  0  0  0
   18.8622   19.7096   23.5531 C   0  0  0  0  0  0  0  0  0  0  0  0
   19.0120   19.3451   22.5340 H   0  0  0  0  0  0  0  0  0  0  0  0
   18.0072   19.1837   23.9853 H   0  0  0  0  0  0  0  0  0  0  0  0
   20.1219   19.4301   24.3947 C   0  0  0  0  0  0  0  0  0  0  0  0
   20.9779   19.9700   23.9702 H   0  0  0  0  0  0  0  0  0  0  0  0
   19.9750   19.8317   25.4061 H   0  0  0  0  0  0  0  0  0  0  0  0
   20.4474   17.9194   24.4988 C   0  0  0  0  0  0  0  0  0  0  0  0
   19.6323   17.4172   25.0380 H   0  0  0  0  0  0  0  0  0  0  0  0
   21.3406   17.7867   25.1238 H   0  0  0  0  0  0  0  0  0  0  0  0
   20.6554   17.2024   23.1373 C   0  0  0  0  0  0  0  0  0  0  0  0
   20.8973   16.1481   23.3298 H   0  0  0  0  0  0  0  0  0  0  0  0
   19.7074   17.1902   22.5827 H   0  0  0  0  0  0  0  0  0  0  0  0
   21.7574   17.8109   22.2330 C   0  0  0  0  0  0  0  0  0  0  0  0
   21.4857   18.8334   21.9384 H   0  0  0  0  0  0  0  0  0  0  0  0
   21.8039   17.2320   21.3000 H   0  0  0  0  0  0  0  0  0  0  0  0
   23.1573   17.8110   22.8882 C   0  0  0  0  0  0  0  0  0  0  0  0
   23.1902   18.4661   23.7675 H   0  0  0  0  0  0  0  0  0  0  0  0
   23.9139   18.1712   22.1792 H   0  0  0  0  0  0  0  0  0  0  0  0
   23.4460   16.7995   23.2020 H   0  0  0  0  0  0  0  0  0  0  0  0
   17.2630   21.3685   22.6186 C   0  0  0  0  0  0  0  0  0  0  0  0
   16.4330   20.8223   23.0723 H   0  0  0  0  0  0  0  0  0  0  0  0
   17.0204   22.4323   22.5676 H   0  0  0  0  0  0  0  0  0  0  0  0
   17.4533   20.9849   21.6138 H   0  0  0  0  0  0  0  0  0  0  0  0
  1  2  1  0  0  0  0
  1  3  1  0  0  0  0
  1  4  1  0  0  0  0
  4  5  1  0  0  0  0
  4  6  1  0  0  0  0
  4  7  1  0  0  0  0
  7  8  1  0  0  0  0
  7  9  1  0  0  0  0
  7 10  1  0  0  0  0
 10 11  1  0  0  0  0
 10 12  1  0  0  0  0
 10 13  1  0  0  0  0
 13 14  1  0  0  0  0
 13 15  1  0  0  0  0
 13 16  1  0  0  0  0
 16 17  1  0  0  0  0
 16 18  1  0  0  0  0
 16 19  1  0  0  0  0
 19 20  1  0  0  0  0
 19 21  1  0  0  0  0
 19 22  1  0  0  0  0
  1 23  1  0  0  0  0
 23 24  1  0  0  0  0
 23 25  1  0  0  0  0
 23 26  1  0  0  0  0
M  END
> <VConfSearch Rank>
38

> <Conf_Id>
71

> <Delta U+W>
1.096

> <U+W>
22.938

> <U>
72.455

> <W>
-49.517

> <W(PB)>
-51.795

> <W(SA)>
2.278

> <Valence>
2.908

> <Coulomb>
69.435

> <VdW>
0.112

> <VdW6>
-7.766

> <VdW12>
7.877

> <Bond>
0.233

> <Angle>
1.170

> <Pdih>
1.506

> <Idih>
0.000

> <Tether>
0.000

$$$$
VeraChem MOL file


 26 25  0  0  0  0  0  0  0  0999 V2000     
   21.6195   20.7214   22.3339 N   0  3  0  0  0  0  0  0  0  0  0  0
   20.8450   20.9877   22.9600 H   0  0  0  0  0  0  0  0  0  0  0  0
   21.6187   21.4322   21.5853 H   0  0  0  0  0  0  0  0  0  0  0  0
   21.3546   19.3491   21.7351 C   0  0  0  0  0  0  0  0  0  0  0  0
   22.2041   19.0967   21.0955 H   0  0  0  0  0  0  0  0  0  0  0  0
   20.4713   19.4359   21.0979 H   0  0  0  0  0  0  0  0  0  0  0  0
   21.1272   18.2173   22.7629 C   0  0  0  0  0  0  0  0  0  0  0  0
   20.9396   17.2823   22.2186 H   0  0  0  0  0  0  0  0  0  0  0  0
   22.0507   18.0534   23.3331 H   0  0  0  0  0  0  0  0  0  0  0  0
   19.9589   18.4783   23.7469 C   0  0  0  0  0  0  0  0  0  0  0  0
   20.1739   19.3684   24.3531 H   0  0  0  0  0  0  0  0  0  0  0  0
   19.9109   17.6356   24.4487 H   0  0  0  0  0  0  0  0  0  0  0  0
   18.5896   18.6419   23.0391 C   0  0  0  0  0  0  0  0  0  0  0  0
   18.6447   19.4652   22.3150 H   0  0  0  0  0  0  0  0  0  0  0  0
   18.3621   17.7363   22.4599 H   0  0  0  0  0  0  0  0  0  0  0  0
   17.4237   18.9370   24.0140 C   0  0  0  0  0  0  0  0  0  0  0  0
   16.5197   19.1508   23.4266 H   0  0  0  0  0  0  0  0  0  0  0  0
   17.6396   19.8495   24.5872 H   0  0  0  0  0  0  0  0  0  0  0  0
   17.1208   17.7726   24.9845 C   0  0  0  0  0  0  0  0  0  0  0  0
   17.9498   17.6016   25.6821 H   0  0  0  0  0  0  0  0  0  0  0  0
   16.9336   16.8400   24.4365 H   0  0  0  0  0  0  0  0  0  0  0  0
   16.2278   17.9944   25.5832 H   0  0  0  0  0  0  0  0  0  0  0  0
   22.9501   20.7510   23.0769 C   0  0  0  0  0  0  0  0  0  0  0  0
   23.1199   21.7573   23.4661 H   0  0  0  0  0  0  0  0  0  0  0  0
   22.9179   20.0381   23.9033 H   0  0  0  0  0  0  0  0  0  0  0  0
   23.7524   20.4824   22.3863 H   0  0  0  0  0  0  0  0  0  0  0  0
  1  2  1  0  0  0  0
  1  3  1  0  0  0  0
  1  4  1  0  0  0  0
  4  5  1  0  0  0  0
  4  6  1  0  0  0  0
  4  7  1  0  0  0  0
  7  8  1  0  0  0  0
  7  9  1  0  0  0  0
  7 10  1  0  0  0  0
 10 11  1  0  0  0  0
 10 12  1  0  0  0  0
 10 13  1  0  0  0  0
 13 14  1  0  0  0  0
 13 15  1  0  0  0  0
 13 16  1  0  0  0  0
 16 17  1  0  0  0  0
 16 18  1  0  0  0  0
 16 19  1  0  0  0  0
 19 20  1  0  0  0  0
 19 21  1  0  0  0  0
 19 22  1  0  0  0  0
  1 23  1  0  0  0  0
 23 24  1  0  0  0  0
 23 25  1  0  0  0  0
 23 26  1  0  0  0  0
M  END
> <VConfSearch Rank>
39

> <Conf_Id>
84

> <Delta U+W>
1.456

> <U+W>
23.298

> <U>
73.042

> <W>
-49.744

> <W(PB)>
-51.966

> <W(SA)>
2.222

> <Valence>
2.938

> <Coulomb>
69.625

> <VdW>
0.478

> <VdW6>
-8.182

> <VdW12>
8.660

> <Bond>
0.253

> <Angle>
1.038

> <Pdih>
1.647

> <Idih>
0.000

> <Tether>
0.000

$$$$
VeraChem MOL file


 26 25  0  0  0  0  0  0  0  0999 V2000     
   21.5871   17.7374   24.2965 N   0  3  0  0  0  0  0  0  0  0  0  0
   20.5998   17.4770   24.1528 H   0  0  0  0  0  0  0  0  0  0  0  0
   21.7397   17.6937   25.3160 H   0  0  0  0  0  0  0  0  0  0  0  0
   21.8294   19.1468   23.7928 C   0  0  0  0  0  0  0  0  0  0  0  0
   21.6625   19.1518   22.7131 H   0  0  0  0  0  0  0  0  0  0  0  0
   22.8799   19.3874   23.9747 H   0  0  0  0  0  0  0  0  0  0  0  0
   20.9366   20.2113   24.4635 C   0  0  0  0  0  0  0  0  0  0  0  0
   21.1507   20.2337   25.5403 H   0  0  0  0  0  0  0  0  0  0  0  0
   21.2169   21.1996   24.0758 H   0  0  0  0  0  0  0  0  0  0  0  0
   19.4182   19.9899   24.2471 C   0  0  0  0  0  0  0  0  0  0  0  0
   18.8715   20.7871   24.7697 H   0  0  0  0  0  0  0  0  0  0  0  0
   19.1062   19.0484   24.7186 H   0  0  0  0  0  0  0  0  0  0  0  0
   19.0087   19.9887   22.7544 C   0  0  0  0  0  0  0  0  0  0  0  0
   19.3439   20.9221   22.2813 H   0  0  0  0  0  0  0  0  0  0  0  0
   19.5107   19.1668   22.2267 H   0  0  0  0  0  0  0  0  0  0  0  0
   17.4806   19.8435   22.5785 C   0  0  0  0  0  0  0  0  0  0  0  0
   16.9673   20.6673   23.0940 H   0  0  0  0  0  0  0  0  0  0  0  0
   17.1391   18.9121   23.0517 H   0  0  0  0  0  0  0  0  0  0  0  0
   17.0740   19.8397   21.0894 C   0  0  0  0  0  0  0  0  0  0  0  0
   17.3724   20.7740   20.5962 H   0  0  0  0  0  0  0  0  0  0  0  0
   15.9861   19.7366   20.9848 H   0  0  0  0  0  0  0  0  0  0  0  0
   17.5443   19.0050   20.5534 H   0  0  0  0  0  0  0  0  0  0  0  0
   22.5074   16.7631   23.5748 C   0  0  0  0  0  0  0  0  0  0  0  0
   23.5460   17.0414   23.7665 H   0  0  0  0  0  0  0  0  0  0  0  0
   22.3217   15.7528   23.9462 H   0  0  0  0  0  0  0  0  0  0  0  0
   22.3049   16.8050   22.5023 H   0  0  0  0  0  0  0  0  0  0  0  0
  1  2  1  0  0  0  0
  1  3  1  0  0  0  0
  1  4  1  0  0  0  0
  4  5  1  0  0  0  0
  4  6  1  0  0  0  0
  4  7  1  0  0  0  0
  7  8  1  0  0  0  0
  7  9  1  0  0  0  0
  7 10  1  0  0  0  0
 10 11  1  0  0  0  0
 10 12  1  0  0  0  0
 10 13  1  0  0  0  0
 13 14  1  0  0  0  0
 13 15  1  0  0  0  0
 13 16  1  0  0  0  0
 16 17  1  0  0  0  0
 16 18  1  0  0  0  0
 16 19  1  0  0  0  0
 19 20  1  0  0  0  0
 19 21  1  0  0  0  0
 19 22  1  0  0  0  0
  1 23  1  0  0  0  0
 23 24  1  0  0  0  0
 23 25  1  0  0  0  0
 23 26  1  0  0  0  0
M  END
> <VConfSearch Rank>
40

> <Conf_Id>
73

> <Delta U+W>
0.884

> <U+W>
22.726

> <U>
71.905

> <W>
-49.179

> <W(PB)>
-51.494

> <W(SA)>
2.315

> <Valence>
2.125

> <Coulomb>
69.686

> <VdW>
0.093

> <VdW6>
-6.766

> <VdW12>
6.859

> <Bond>
0.169

> <Angle>
0.621

> <Pdih>
1.336

> <Idih>
0.000

> <Tether>
0.000

$$$$
VeraChem MOL file


 26 25  0  0  0  0  0  0  0  0999 V2000     
   22.9265   18.9681   24.7597 N   0  3  0  0  0  0  0  0  0  0  0  0
   22.6123   18.3949   25.5581 H   0  0  0  0  0  0  0  0  0  0  0  0
   22.9077   19.9430   25.0976 H   0  0  0  0  0  0  0  0  0  0  0  0
   21.9769   18.8015   23.5904 C   0  0  0  0  0  0  0  0  0  0  0  0
   22.0203   17.7577   23.2693 H   0  0  0  0  0  0  0  0  0  0  0  0
   22.3394   19.4289   22.7721 H   0  0  0  0  0  0  0  0  0  0  0  0
   20.5232   19.1795   23.9281 C   0  0  0  0  0  0  0  0  0  0  0  0
   20.1687   18.5583   24.7615 H   0  0  0  0  0  0  0  0  0  0  0  0
   20.4867   20.2238   24.2659 H   0  0  0  0  0  0  0  0  0  0  0  0
   19.5932   18.9942   22.7087 C   0  0  0  0  0  0  0  0  0  0  0  0
   19.6367   17.9495   22.3704 H   0  0  0  0  0  0  0  0  0  0  0  0
   19.9544   19.6130   21.8753 H   0  0  0  0  0  0  0  0  0  0  0  0
   18.1302   19.3711   23.0360 C   0  0  0  0  0  0  0  0  0  0  0  0
   17.7688   18.7525   23.8691 H   0  0  0  0  0  0  0  0  0  0  0  0
   18.0865   20.4158   23.3741 H   0  0  0  0  0  0  0  0  0  0  0  0
   17.2003   19.1857   21.8161 C   0  0  0  0  0  0  0  0  0  0  0  0
   17.2386   18.1415   21.4754 H   0  0  0  0  0  0  0  0  0  0  0  0
   17.5562   19.8046   20.9805 H   0  0  0  0  0  0  0  0  0  0  0  0
   15.7404   19.5630   22.1467 C   0  0  0  0  0  0  0  0  0  0  0  0
   15.0959   19.4248   21.2689 H   0  0  0  0  0  0  0  0  0  0  0  0
   15.6646   20.6130   22.4581 H   0  0  0  0  0  0  0  0  0  0  0  0
   15.3445   18.9368   22.9569 H   0  0  0  0  0  0  0  0  0  0  0  0
   24.3368   18.5748   24.3421 C   0  0  0  0  0  0  0  0  0  0  0  0
   24.6597   19.2162   23.5191 H   0  0  0  0  0  0  0  0  0  0  0  0
   25.0102   18.6993   25.1930 H   0  0  0  0  0  0  0  0  0  0  0  0
   24.3381   17.5310   24.0204 H   0  0  0  0  0  0  0  0  0  0  0  0
  1  2  1  0  0  0  0
  1  3  1  0  0  0  0
  1  4  1  0  0  0  0
  4  5  1  0  0  0  0
  4  6  1  0  0  0  0
  4  7  1  0  0  0  0
  7  8  1  0  0  0  0
  7  9  1  0  0  0  0
  7 10  1  0  0  0  0
 10 11  1  0  0  0  0
 10 12  1  0  0  0  0
 10 13  1  0  0  0  0
 13 14  1  0  0  0  0
 13 15  1  0  0  0  0
 13 16  1  0  0  0  0
 16 17  1  0  0  0  0
 16 18  1  0  0  0  0
 16 19  1  0  0  0  0
 19 20  1  0  0  0  0
 19 21  1  0  0  0  0
 19 22  1  0  0  0  0
  1 23  1  0  0  0  0
 23 24  1  0  0  0  0
 23 25  1  0  0  0  0
 23 26  1  0  0  0  0
M  END
> <VConfSearch Rank>
41

> <Conf_Id>
11

> <Delta U+W>
0.000

> <U+W>
21.842

> <U>
70.357

> <W>
-48.515

> <W(PB)>
-50.856

> <W(SA)>
2.341

> <Valence>
1.714

> <Coulomb>
68.480

> <VdW>
0.163

> <VdW6>
-5.268

> <VdW12>
5.431

> <Bond>
0.126

> <Angle>
0.350

> <Pdih>
1.238

> <Idih>
0.000

> <Tether>
0.000

$$$$
VeraChem MOL file


 26 25  0  0  0  0  0  0  0  0999 V2000     
   20.6315   22.3705   23.3174 N   0  3  0  0  0  0  0  0  0  0  0  0
   20.6312   23.1664   22.6597 H   0  0  0  0  0  0  0  0  0  0  0  0
   21.6179   22.2580   23.5982 H   0  0  0  0  0  0  0  0  0  0  0  0
   20.1427   21.1212   22.6035 C   0  0  0  0  0  0  0  0  0  0  0  0
   20.7003   21.0436   21.6667 H   0  0  0  0  0  0  0  0  0  0  0  0
   19.0872   21.2645   22.3589 H   0  0  0  0  0  0  0  0  0  0  0  0
   20.3231   19.8148   23.4032 C   0  0  0  0  0  0  0  0  0  0  0  0
   21.3781   19.7045   23.6871 H   0  0  0  0  0  0  0  0  0  0  0  0
   19.7428   19.8658   24.3335 H   0  0  0  0  0  0  0  0  0  0  0  0
   19.8740   18.5853   22.5828 C   0  0  0  0  0  0  0  0  0  0  0  0
   20.4538   18.5355   21.6505 H   0  0  0  0  0  0  0  0  0  0  0  0
   18.8198   18.7026   22.2952 H   0  0  0  0  0  0  0  0  0  0  0  0
   20.0510   17.2684   23.3727 C   0  0  0  0  0  0  0  0  0  0  0  0
   21.1050   17.1512   23.6605 H   0  0  0  0  0  0  0  0  0  0  0  0
   19.4711   17.3180   24.3048 H   0  0  0  0  0  0  0  0  0  0  0  0
   19.6018   16.0390   22.5519 C   0  0  0  0  0  0  0  0  0  0  0  0
   20.1808   15.9834   21.6193 H   0  0  0  0  0  0  0  0  0  0  0  0
   18.5471   16.1503   22.2635 H   0  0  0  0  0  0  0  0  0  0  0  0
   19.7799   14.7259   23.3438 C   0  0  0  0  0  0  0  0  0  0  0  0
   19.4558   13.8649   22.7448 H   0  0  0  0  0  0  0  0  0  0  0  0
   19.1850   14.7373   24.2663 H   0  0  0  0  0  0  0  0  0  0  0  0
   20.8315   14.5691   23.6171 H   0  0  0  0  0  0  0  0  0  0  0  0
   19.7577   22.6956   24.5236 C   0  0  0  0  0  0  0  0  0  0  0  0
   19.8154   21.8769   25.2436 H   0  0  0  0  0  0  0  0  0  0  0  0
   20.1169   23.6173   24.9867 H   0  0  0  0  0  0  0  0  0  0  0  0
   18.7250   22.8273   24.1934 H   0  0  0  0  0  0  0  0  0  0  0  0
  1  2  1  0  0  0  0
  1  3  1  0  0  0  0
  1  4  1  0  0  0  0
  4  5  1  0  0  0  0
  4  6  1  0  0  0  0
  4  7  1  0  0  0  0
  7  8  1  0  0  0  0
  7  9  1  0  0  0  0
  7 10  1  0  0  0  0
 10 11  1  0  0  0  0
 10 12  1  0  0  0  0
 10 13  1  0  0  0  0
 13 14  1  0  0  0  0
 13 15  1  0  0  0  0
 13 16  1  0  0  0  0
 16 17  1  0  0  0  0
 16 18  1  0  0  0  0
 16 19  1  0  0  0  0
 19 20  1  0  0  0  0
 19 21  1  0  0  0  0
 19 22  1  0  0  0  0
  1 23  1  0  0  0  0
 23 24  1  0  0  0  0
 23 25  1  0  0  0  0
 23 26  1  0  0  0  0
M  END
> <VConfSearch Rank>
42

> <Conf_Id>
102

> <Delta U+W>
0.121

> <U+W>
21.963

> <U>
70.745

> <W>
-48.782

> <W(PB)>
-51.111

> <W(SA)>
2.329

> <Valence>
1.993

> <Coulomb>
68.323

> <VdW>
0.429

> <VdW6>
-5.973

> <VdW12>
6.402

> <Bond>
0.161

> <Angle>
0.472

> <Pdih>
1.360

> <Idih>
0.000

> <Tether>
0.000

$$$$
VeraChem MOL file


 26 25  0  0  0  0  0  0  0  0999 V2000     
   17.8874   19.8986   20.8575 N   0  3  0  0  0  0  0  0  0  0  0  0
   18.0229   19.0283   20.3201 H   0  0  0  0  0  0  0  0  0  0  0  0
   17.7648   20.6352   20.1445 H   0  0  0  0  0  0  0  0  0  0  0  0
   19.1218   20.1988   21.6914 C   0  0  0  0  0  0  0  0  0  0  0  0
   18.9235   21.1026   22.2729 H   0  0  0  0  0  0  0  0  0  0  0  0
   19.9378   20.4147   20.9969 H   0  0  0  0  0  0  0  0  0  0  0  0
   19.5535   19.0546   22.6310 C   0  0  0  0  0  0  0  0  0  0  0  0
   18.7550   18.8475   23.3551 H   0  0  0  0  0  0  0  0  0  0  0  0
   19.7023   18.1383   22.0445 H   0  0  0  0  0  0  0  0  0  0  0  0
   20.8548   19.4059   23.3858 C   0  0  0  0  0  0  0  0  0  0  0  0
   20.7038   20.3268   23.9662 H   0  0  0  0  0  0  0  0  0  0  0  0
   21.6537   19.6150   22.6608 H   0  0  0  0  0  0  0  0  0  0  0  0
   21.2995   18.2663   24.3308 C   0  0  0  0  0  0  0  0  0  0  0  0
   20.5009   18.0573   25.0561 H   0  0  0  0  0  0  0  0  0  0  0  0
   21.4503   17.3454   23.7505 H   0  0  0  0  0  0  0  0  0  0  0  0
   22.6011   18.6180   25.0855 C   0  0  0  0  0  0  0  0  0  0  0  0
   22.4547   19.5376   25.6694 H   0  0  0  0  0  0  0  0  0  0  0  0
   23.4040   18.8254   24.3641 H   0  0  0  0  0  0  0  0  0  0  0  0
   23.0419   17.4779   26.0282 C   0  0  0  0  0  0  0  0  0  0  0  0
   22.2728   17.2704   26.7836 H   0  0  0  0  0  0  0  0  0  0  0  0
   23.9671   17.7460   26.5546 H   0  0  0  0  0  0  0  0  0  0  0  0
   23.2294   16.5525   25.4681 H   0  0  0  0  0  0  0  0  0  0  0  0
   16.6397   19.8093   21.7291 C   0  0  0  0  0  0  0  0  0  0  0  0
   16.5122   20.7494   22.2703 H   0  0  0  0  0  0  0  0  0  0  0  0
   15.7709   19.6302   21.0918 H   0  0  0  0  0  0  0  0  0  0  0  0
   16.7511   18.9858   22.4372 H   0  0  0  0  0  0  0  0  0  0  0  0
  1  2  1  0  0  0  0
  1  3  1  0  0  0  0
  1  4  1  0  0  0  0
  4  5  1  0  0  0  0
  4  6  1  0  0  0  0
  4  7  1  0  0  0  0
  7  8  1  0  0  0  0
  7  9  1  0  0  0  0
  7 10  1  0  0  0  0
 10 11  1  0  0  0  0
 10 12  1  0  0  0  0
 10 13  1  0  0  0  0
 13 14  1  0  0  0  0
 13 15  1  0  0  0  0
 13 16  1  0  0  0  0
 16 17  1  0  0  0  0
 16 18  1  0  0  0  0
 16 19  1  0  0  0  0
 19 20  1  0  0  0  0
 19 21  1  0  0  0  0
 19 22  1  0  0  0  0
  1 23  1  0  0  0  0
 23 24  1  0  0  0  0
 23 25  1  0  0  0  0
 23 26  1  0  0  0  0
M  END
> <VConfSearch Rank>
43

> <Conf_Id>
37

> <Delta U+W>
0.125

> <U+W>
21.967

> <U>
70.745

> <W>
-48.778

> <W(PB)>
-51.115

> <W(SA)>
2.337

> <Valence>
1.993

> <Coulomb>
68.323

> <VdW>
0.429

> <VdW6>
-5.973

> <VdW12>
6.403

> <Bond>
0.161

> <Angle>
0.472

> <Pdih>
1.360

> <Idih>
0.000

> <Tether>
0.000

$$$$
VeraChem MOL file


 26 25  0  0  0  0  0  0  0  0999 V2000     
   22.5546   20.3378   24.4383 N   0  3  0  0  0  0  0  0  0  0  0  0
   22.3731   20.7236   25.3780 H   0  0  0  0  0  0  0  0  0  0  0  0
   22.5873   21.1543   23.8081 H   0  0  0  0  0  0  0  0  0  0  0  0
   21.4315   19.4062   24.0295 C   0  0  0  0  0  0  0  0  0  0  0  0
   21.4245   18.5638   24.7257 H   0  0  0  0  0  0  0  0  0  0  0  0
   21.6614   19.0268   23.0312 H   0  0  0  0  0  0  0  0  0  0  0  0
   20.0485   20.0858   24.0247 C   0  0  0  0  0  0  0  0  0  0  0  0
   19.8518   20.5032   25.0212 H   0  0  0  0  0  0  0  0  0  0  0  0
   20.0546   20.9322   23.3251 H   0  0  0  0  0  0  0  0  0  0  0  0
   18.9035   19.1134   23.6542 C   0  0  0  0  0  0  0  0  0  0  0  0
   17.9497   19.6414   23.7828 H   0  0  0  0  0  0  0  0  0  0  0  0
   18.8926   18.2735   24.3627 H   0  0  0  0  0  0  0  0  0  0  0  0
   19.0082   18.5743   22.2046 C   0  0  0  0  0  0  0  0  0  0  0  0
   18.9985   19.4135   21.4955 H   0  0  0  0  0  0  0  0  0  0  0  0
   19.9728   18.0674   22.0698 H   0  0  0  0  0  0  0  0  0  0  0  0
   17.8846   17.5750   21.8362 C   0  0  0  0  0  0  0  0  0  0  0  0
   17.8968   16.7272   22.5355 H   0  0  0  0  0  0  0  0  0  0  0  0
   18.0984   17.1560   20.8429 H   0  0  0  0  0  0  0  0  0  0  0  0
   16.4758   18.2109   21.8137 C   0  0  0  0  0  0  0  0  0  0  0  0
   16.1616   18.5330   22.8140 H   0  0  0  0  0  0  0  0  0  0  0  0
   15.7337   17.4868   21.4533 H   0  0  0  0  0  0  0  0  0  0  0  0
   16.4459   19.0817   21.1460 H   0  0  0  0  0  0  0  0  0  0  0  0
   23.8813   19.5914   24.4145 C   0  0  0  0  0  0  0  0  0  0  0  0
   24.0674   19.2216   23.4038 H   0  0  0  0  0  0  0  0  0  0  0  0
   24.6814   20.2734   24.7110 H   0  0  0  0  0  0  0  0  0  0  0  0
   23.8340   18.7527   25.1127 H   0  0  0  0  0  0  0  0  0  0  0  0
  1  2  1  0  0  0  0
  1  3  1  0  0  0  0
  1  4  1  0  0  0  0
  4  5  1  0  0  0  0
  4  6  1  0  0  0  0
  4  7  1  0  0  0  0
  7  8  1  0  0  0  0
  7  9  1  0  0  0  0
  7 10  1  0  0  0  0
 10 11  1  0  0  0  0
 10 12  1  0  0  0  0
 10 13  1  0  0  0  0
 13 14  1  0  0  0  0
 13 15  1  0  0  0  0
 13 16  1  0  0  0  0
 16 17  1  0  0  0  0
 16 18  1  0  0  0  0
 16 19  1  0  0  0  0
 19 20  1  0  0  0  0
 19 21  1  0  0  0  0
 19 22  1  0  0  0  0
  1 23  1  0  0  0  0
 23 24  1  0  0  0  0
 23 25  1  0  0  0  0
 23 26  1  0  0  0  0
M  END
> <VConfSearch Rank>
44

> <Conf_Id>
137

> <Delta U+W>
1.038

> <U+W>
22.880

> <U>
71.810

> <W>
-48.930

> <W(PB)>
-51.257

> <W(SA)>
2.327

> <Valence>
2.568

> <Coulomb>
68.877

> <VdW>
0.364

> <VdW6>
-6.470

> <VdW12>
6.834

> <Bond>
0.191

> <Angle>
0.752

> <Pdih>
1.626

> <Idih>
0.000

> <Tether>
0.000

$$$$
VeraChem MOL file


 26 25  0  0  0  0  0  0  0  0999 V2000     
   22.3708   20.7630   22.4524 N   0  3  0  0  0  0  0  0  0  0  0  0
   22.3985   21.1132   23.4226 H   0  0  0  0  0  0  0  0  0  0  0  0
   21.7959   21.4433   21.9312 H   0  0  0  0  0  0  0  0  0  0  0  0
   21.7265   19.3920   22.4091 C   0  0  0  0  0  0  0  0  0  0  0  0
   22.3597   18.7058   22.9771 H   0  0  0  0  0  0  0  0  0  0  0  0
   21.7096   19.0624   21.3672 H   0  0  0  0  0  0  0  0  0  0  0  0
   20.2976   19.3722   22.9819 C   0  0  0  0  0  0  0  0  0  0  0  0
   20.3249   19.7227   24.0212 H   0  0  0  0  0  0  0  0  0  0  0  0
   19.6693   20.0749   22.4186 H   0  0  0  0  0  0  0  0  0  0  0  0
   19.6835   17.9540   22.9132 C   0  0  0  0  0  0  0  0  0  0  0  0
   20.2847   17.2601   23.5171 H   0  0  0  0  0  0  0  0  0  0  0  0
   19.7414   17.5902   21.8778 H   0  0  0  0  0  0  0  0  0  0  0  0
   18.2055   17.8948   23.3722 C   0  0  0  0  0  0  0  0  0  0  0  0
   17.6009   18.5753   22.7567 H   0  0  0  0  0  0  0  0  0  0  0  0
   17.8217   16.8833   23.1795 H   0  0  0  0  0  0  0  0  0  0  0  0
   18.0071   18.2303   24.8696 C   0  0  0  0  0  0  0  0  0  0  0  0
   18.3112   19.2662   25.0701 H   0  0  0  0  0  0  0  0  0  0  0  0
   18.6508   17.5847   25.4832 H   0  0  0  0  0  0  0  0  0  0  0  0
   16.5371   18.0478   25.3041 C   0  0  0  0  0  0  0  0  0  0  0  0
   15.8710   18.7033   24.7281 H   0  0  0  0  0  0  0  0  0  0  0  0
   16.4138   18.2926   26.3670 H   0  0  0  0  0  0  0  0  0  0  0  0
   16.2072   17.0111   25.1573 H   0  0  0  0  0  0  0  0  0  0  0  0
   23.7756   20.6938   21.8694 C   0  0  0  0  0  0  0  0  0  0  0  0
   23.7181   20.3531   20.8333 H   0  0  0  0  0  0  0  0  0  0  0  0
   24.2281   21.6873   21.9065 H   0  0  0  0  0  0  0  0  0  0  0  0
   24.3740   19.9938   22.4566 H   0  0  0  0  0  0  0  0  0  0  0  0
  1  2  1  0  0  0  0
  1  3  1  0  0  0  0
  1  4  1  0  0  0  0
  4  5  1  0  0  0  0
  4  6  1  0  0  0  0
  4  7  1  0  0  0  0
  7  8  1  0  0  0  0
  7  9  1  0  0  0  0
  7 10  1  0  0  0  0
 10 11  1  0  0  0  0
 10 12  1  0  0  0  0
 10 13  1  0  0  0  0
 13 14  1  0  0  0  0
 13 15  1  0  0  0  0
 13 16  1  0  0  0  0
 16 17  1  0  0  0  0
 16 18  1  0  0  0  0
 16 19  1  0  0  0  0
 19 20  1  0  0  0  0
 19 21  1  0  0  0  0
 19 22  1  0  0  0  0
  1 23  1  0  0  0  0
 23 24  1  0  0  0  0
 23 25  1  0  0  0  0
 23 26  1  0  0  0  0
M  END
> <VConfSearch Rank>
45

> <Conf_Id>
35

> <Delta U+W>
0.670

> <U+W>
22.512

> <U>
71.348

> <W>
-48.837

> <W(PB)>
-51.150

> <W(SA)>
2.313

> <Valence>
2.262

> <Coulomb>
68.807

> <VdW>
0.280

> <VdW6>
-5.915

> <VdW12>
6.195

> <Bond>
0.164

> <Angle>
0.622

> <Pdih>
1.475

> <Idih>
0.000

> <Tether>
0.000

$$$$
VeraChem MOL file


 26 25  0  0  0  0  0  0  0  0999 V2000     
   18.5073   16.8724   24.6191 N   0  3  0  0  0  0  0  0  0  0  0  0
   18.5249   16.2391   23.8046 H   0  0  0  0  0  0  0  0  0  0  0  0
   17.6645   17.4549   24.4959 H   0  0  0  0  0  0  0  0  0  0  0  0
   19.7477   17.7431   24.6314 C   0  0  0  0  0  0  0  0  0  0  0  0
   20.6148   17.0894   24.7552 H   0  0  0  0  0  0  0  0  0  0  0  0
   19.6864   18.4021   25.5012 H   0  0  0  0  0  0  0  0  0  0  0  0
   19.9128   18.5861   23.3538 C   0  0  0  0  0  0  0  0  0  0  0  0
   19.9576   17.9208   22.4813 H   0  0  0  0  0  0  0  0  0  0  0  0
   19.0286   19.2239   23.2304 H   0  0  0  0  0  0  0  0  0  0  0  0
   21.1922   19.4538   23.4135 C   0  0  0  0  0  0  0  0  0  0  0  0
   22.0542   18.8041   23.6195 H   0  0  0  0  0  0  0  0  0  0  0  0
   21.1260   20.1540   24.2579 H   0  0  0  0  0  0  0  0  0  0  0  0
   21.4706   20.2395   22.1082 C   0  0  0  0  0  0  0  0  0  0  0  0
   22.4502   20.7290   22.1991 H   0  0  0  0  0  0  0  0  0  0  0  0
   21.5546   19.5380   21.2666 H   0  0  0  0  0  0  0  0  0  0  0  0
   20.4012   21.3113   21.7893 C   0  0  0  0  0  0  0  0  0  0  0  0
   20.2797   21.9824   22.6511 H   0  0  0  0  0  0  0  0  0  0  0  0
   19.4268   20.8358   21.6160 H   0  0  0  0  0  0  0  0  0  0  0  0
   20.7808   22.1416   20.5445 C   0  0  0  0  0  0  0  0  0  0  0  0
   21.7326   22.6675   20.6951 H   0  0  0  0  0  0  0  0  0  0  0  0
   20.0109   22.8944   20.3310 H   0  0  0  0  0  0  0  0  0  0  0  0
   20.8805   21.5013   19.6584 H   0  0  0  0  0  0  0  0  0  0  0  0
   18.4210   16.0755   25.9135 C   0  0  0  0  0  0  0  0  0  0  0  0
   18.3702   16.7663   26.7579 H   0  0  0  0  0  0  0  0  0  0  0  0
   17.5238   15.4529   25.8917 H   0  0  0  0  0  0  0  0  0  0  0  0
   19.3067   15.4430   26.0055 H   0  0  0  0  0  0  0  0  0  0  0  0
  1  2  1  0  0  0  0
  1  3  1  0  0  0  0
  1  4  1  0  0  0  0
  4  5  1  0  0  0  0
  4  6  1  0  0  0  0
  4  7  1  0  0  0  0
  7  8  1  0  0  0  0
  7  9  1  0  0  0  0
  7 10  1  0  0  0  0
 10 11  1  0  0  0  0
 10 12  1  0  0  0  0
 10 13  1  0  0  0  0
 13 14  1  0  0  0  0
 13 15  1  0  0  0  0
 13 16  1  0  0  0  0
 16 17  1  0  0  0  0
 16 18  1  0  0  0  0
 16 19  1  0  0  0  0
 19 20  1  0  0  0  0
 19 21  1  0  0  0  0
 19 22  1  0  0  0  0
  1 23  1  0  0  0  0
 23 24  1  0  0  0  0
 23 25  1  0  0  0  0
 23 26  1  0  0  0  0
M  END
> <VConfSearch Rank>
46

> <Conf_Id>
36

> <Delta U+W>
0.662

> <U+W>
22.504

> <U>
71.348

> <W>
-48.844

> <W(PB)>
-51.157

> <W(SA)>
2.313

> <Valence>
2.262

> <Coulomb>
68.807

> <VdW>
0.280

> <VdW6>
-5.916

> <VdW12>
6.195

> <Bond>
0.164

> <Angle>
0.622

> <Pdih>
1.475

> <Idih>
0.000

> <Tether>
0.000

$$$$
VeraChem MOL file


 26 25  0  0  0  0  0  0  0  0999 V2000     
   18.4392   16.6869   23.9356 N   0  3  0  0  0  0  0  0  0  0  0  0
   17.7496   16.8185   23.1793 H   0  0  0  0  0  0  0  0  0  0  0  0
   17.8952   16.7204   24.8119 H   0  0  0  0  0  0  0  0  0  0  0  0
   19.4616   17.8052   23.9117 C   0  0  0  0  0  0  0  0  0  0  0  0
   20.0087   17.7355   22.9686 H   0  0  0  0  0  0  0  0  0  0  0  0
   20.1640   17.6351   24.7315 H   0  0  0  0  0  0  0  0  0  0  0  0
   18.8347   19.2061   24.0488 C   0  0  0  0  0  0  0  0  0  0  0  0
   18.1276   19.3765   23.2260 H   0  0  0  0  0  0  0  0  0  0  0  0
   18.2517   19.2490   24.9784 H   0  0  0  0  0  0  0  0  0  0  0  0
   19.8925   20.3349   24.0672 C   0  0  0  0  0  0  0  0  0  0  0  0
   20.5822   20.1769   24.9081 H   0  0  0  0  0  0  0  0  0  0  0  0
   19.3845   21.2904   24.2580 H   0  0  0  0  0  0  0  0  0  0  0  0
   20.6937   20.4392   22.7470 C   0  0  0  0  0  0  0  0  0  0  0  0
   21.2468   19.5074   22.5684 H   0  0  0  0  0  0  0  0  0  0  0  0
   19.9992   20.5636   21.9046 H   0  0  0  0  0  0  0  0  0  0  0  0
   21.6886   21.6212   22.7711 C   0  0  0  0  0  0  0  0  0  0  0  0
   22.3855   21.5024   23.6126 H   0  0  0  0  0  0  0  0  0  0  0  0
   21.1448   22.5612   22.9406 H   0  0  0  0  0  0  0  0  0  0  0  0
   22.4882   21.7233   21.4546 C   0  0  0  0  0  0  0  0  0  0  0  0
   23.0711   20.8106   21.2747 H   0  0  0  0  0  0  0  0  0  0  0  0
   23.1883   22.5681   21.4908 H   0  0  0  0  0  0  0  0  0  0  0  0
   21.8198   21.8766   20.5974 H   0  0  0  0  0  0  0  0  0  0  0  0
   19.1389   15.3424   23.7925 C   0  0  0  0  0  0  0  0  0  0  0  0
   19.8385   15.2116   24.6210 H   0  0  0  0  0  0  0  0  0  0  0  0
   18.3916   14.5459   23.8115 H   0  0  0  0  0  0  0  0  0  0  0  0
   19.6798   15.3181   22.8439 H   0  0  0  0  0  0  0  0  0  0  0  0
  1  2  1  0  0  0  0
  1  3  1  0  0  0  0
  1  4  1  0  0  0  0
  4  5  1  0  0  0  0
  4  6  1  0  0  0  0
  4  7  1  0  0  0  0
  7  8  1  0  0  0  0
  7  9  1  0  0  0  0
  7 10  1  0  0  0  0
 10 11  1  0  0  0  0
 10 12  1  0  0  0  0
 10 13  1  0  0  0  0
 13 14  1  0  0  0  0
 13 15  1  0  0  0  0
 13 16  1  0  0  0  0
 16 17  1  0  0  0  0
 16 18  1  0  0  0  0
 16 19  1  0  0  0  0
 19 20  1  0  0  0  0
 19 21  1  0  0  0  0
 19 22  1  0  0  0  0
  1 23  1  0  0  0  0
 23 24  1  0  0  0  0
 23 25  1  0  0  0  0
 23 26  1  0  0  0  0
M  END
> <VConfSearch Rank>
47

> <Conf_Id>
46

> <Delta U+W>
0.496

> <U+W>
22.338

> <U>
71.138

> <W>
-48.799

> <W(PB)>
-51.136

> <W(SA)>
2.337

> <Valence>
2.016

> <Coulomb>
68.932

> <VdW>
0.190

> <VdW6>
-5.902

> <VdW12>
6.092

> <Bond>
0.149

> <Angle>
0.477

> <Pdih>
1.390

> <Idih>
0.000

> <Tether>
0.000

$$$$
VeraChem MOL file


 26 25  0  0  0  0  0  0  0  0999 V2000     
   22.5959   18.1619   24.4396 N   0  3  0  0  0  0  0  0  0  0  0  0
   22.9780   18.7111   25.2253 H   0  0  0  0  0  0  0  0  0  0  0  0
   23.1783   18.4080   23.6241 H   0  0  0  0  0  0  0  0  0  0  0  0
   21.1521   18.5462   24.1863 C   0  0  0  0  0  0  0  0  0  0  0  0
   20.5734   18.2800   25.0744 H   0  0  0  0  0  0  0  0  0  0  0  0
   20.7909   17.9473   23.3470 H   0  0  0  0  0  0  0  0  0  0  0  0
   20.9662   20.0441   23.8764 C   0  0  0  0  0  0  0  0  0  0  0  0
   21.3728   20.6357   24.7075 H   0  0  0  0  0  0  0  0  0  0  0  0
   21.5490   20.3120   22.9851 H   0  0  0  0  0  0  0  0  0  0  0  0
   19.4834   20.4307   23.6635 C   0  0  0  0  0  0  0  0  0  0  0  0
   19.4181   21.5205   23.5389 H   0  0  0  0  0  0  0  0  0  0  0  0
   18.9078   20.1867   24.5673 H   0  0  0  0  0  0  0  0  0  0  0  0
   18.8449   19.7389   22.4349 C   0  0  0  0  0  0  0  0  0  0  0  0
   19.4418   19.9576   21.5387 H   0  0  0  0  0  0  0  0  0  0  0  0
   18.8587   18.6488   22.5682 H   0  0  0  0  0  0  0  0  0  0  0  0
   17.3885   20.2022   22.2077 C   0  0  0  0  0  0  0  0  0  0  0  0
   17.3633   21.2916   22.0643 H   0  0  0  0  0  0  0  0  0  0  0  0
   16.7868   19.9865   23.1017 H   0  0  0  0  0  0  0  0  0  0  0  0
   16.7522   19.5104   20.9832 C   0  0  0  0  0  0  0  0  0  0  0  0
   17.3131   19.7353   20.0667 H   0  0  0  0  0  0  0  0  0  0  0  0
   15.7192   19.8525   20.8381 H   0  0  0  0  0  0  0  0  0  0  0  0
   16.7308   18.4204   21.1121 H   0  0  0  0  0  0  0  0  0  0  0  0
   22.6912   16.6712   24.7337 C   0  0  0  0  0  0  0  0  0  0  0  0
   23.7357   16.4078   24.9144 H   0  0  0  0  0  0  0  0  0  0  0  0
   22.0943   16.4409   25.6189 H   0  0  0  0  0  0  0  0  0  0  0  0
   22.3126   16.1110   23.8759 H   0  0  0  0  0  0  0  0  0  0  0  0
  1  2  1  0  0  0  0
  1  3  1  0  0  0  0
  1  4  1  0  0  0  0
  4  5  1  0  0  0  0
  4  6  1  0  0  0  0
  4  7  1  0  0  0  0
  7  8  1  0  0  0  0
  7  9  1  0  0  0  0
  7 10  1  0  0  0  0
 10 11  1  0  0  0  0
 10 12  1  0  0  0  0
 10 13  1  0  0  0  0
 13 14  1  0  0  0  0
 13 15  1  0  0  0  0
 13 16  1  0  0  0  0
 16 17  1  0  0  0  0
 16 18  1  0  0  0  0
 16 19  1  0  0  0  0
 19 20  1  0  0  0  0
 19 21  1  0  0  0  0
 19 22  1  0  0  0  0
  1 23  1  0  0  0  0
 23 24  1  0  0  0  0
 23 25  1  0  0  0  0
 23 26  1  0  0  0  0
M  END
> <VConfSearch Rank>
48

> <Conf_Id>
45

> <Delta U+W>
0.471

> <U+W>
22.313

> <U>
71.138

> <W>
-48.825

> <W(PB)>
-51.169

> <W(SA)>
2.344

> <Valence>
2.016

> <Coulomb>
68.932

> <VdW>
0.190

> <VdW6>
-5.902

> <VdW12>
6.092

> <Bond>
0.149

> <Angle>
0.477

> <Pdih>
1.390

> <Idih>
0.000

> <Tether>
0.000

$$$$
VeraChem MOL file


 26 25  0  0  0  0  0  0  0  0999 V2000     
   19.0506   20.0003   25.4937 N   0  3  0  0  0  0  0  0  0  0  0  0
   20.0725   19.9394   25.6167 H   0  0  0  0  0  0  0  0  0  0  0  0
   18.6963   19.0428   25.6431 H   0  0  0  0  0  0  0  0  0  0  0  0
   18.7223   20.4648   24.0879 C   0  0  0  0  0  0  0  0  0  0  0  0
   19.1202   21.4753   23.9651 H   0  0  0  0  0  0  0  0  0  0  0  0
   17.6338   20.5138   24.0023 H   0  0  0  0  0  0  0  0  0  0  0  0
   19.2815   19.5492   22.9812 C   0  0  0  0  0  0  0  0  0  0  0  0
   18.8749   18.5385   23.1125 H   0  0  0  0  0  0  0  0  0  0  0  0
   18.9149   19.9128   22.0121 H   0  0  0  0  0  0  0  0  0  0  0  0
   20.8303   19.5139   22.9642 C   0  0  0  0  0  0  0  0  0  0  0  0
   21.2084   19.0678   23.8937 H   0  0  0  0  0  0  0  0  0  0  0  0
   21.2102   20.5449   22.9387 H   0  0  0  0  0  0  0  0  0  0  0  0
   21.4165   18.7454   21.7542 C   0  0  0  0  0  0  0  0  0  0  0  0
   21.0613   19.2020   20.8201 H   0  0  0  0  0  0  0  0  0  0  0  0
   22.5085   18.8672   21.7600 H   0  0  0  0  0  0  0  0  0  0  0  0
   21.0791   17.2353   21.7580 C   0  0  0  0  0  0  0  0  0  0  0  0
   19.9939   17.0887   21.6757 H   0  0  0  0  0  0  0  0  0  0  0  0
   21.3897   16.7877   22.7125 H   0  0  0  0  0  0  0  0  0  0  0  0
   21.7736   16.4938   20.5958 C   0  0  0  0  0  0  0  0  0  0  0  0
   21.4597   16.8995   19.6252 H   0  0  0  0  0  0  0  0  0  0  0  0
   21.5215   15.4255   20.6117 H   0  0  0  0  0  0  0  0  0  0  0  0
   22.8656   16.5827   20.6664 H   0  0  0  0  0  0  0  0  0  0  0  0
   18.4468   20.9587   26.5107 C   0  0  0  0  0  0  0  0  0  0  0  0
   17.3625   20.9827   26.3818 H   0  0  0  0  0  0  0  0  0  0  0  0
   18.6910   20.6132   27.5177 H   0  0  0  0  0  0  0  0  0  0  0  0
   18.8604   21.9572   26.3528 H   0  0  0  0  0  0  0  0  0  0  0  0
  1  2  1  0  0  0  0
  1  3  1  0  0  0  0
  1  4  1  0  0  0  0
  4  5  1  0  0  0  0
  4  6  1  0  0  0  0
  4  7  1  0  0  0  0
  7  8  1  0  0  0  0
  7  9  1  0  0  0  0
  7 10  1  0  0  0  0
 10 11  1  0  0  0  0
 10 12  1  0  0  0  0
 10 13  1  0  0  0  0
 13 14  1  0  0  0  0
 13 15  1  0  0  0  0
 13 16  1  0  0  0  0
 16 17  1  0  0  0  0
 16 18  1  0  0  0  0
 16 19  1  0  0  0  0
 19 20  1  0  0  0  0
 19 21  1  0  0  0  0
 19 22  1  0  0  0  0
  1 23  1  0  0  0  0
 23 24  1  0  0  0  0
 23 25  1  0  0  0  0
 23 26  1  0  0  0  0
M  END
> <VConfSearch Rank>
49

> <Conf_Id>
143

> <Delta U+W>
0.915

> <U+W>
22.757

> <U>
71.994

> <W>
-49.237

> <W(PB)>
-51.537

> <W(SA)>
2.300

> <Valence>
2.376

> <Coulomb>
69.315

> <VdW>
0.303

> <VdW6>
-6.508

> <VdW12>
6.810

> <Bond>
0.182

> <Angle>
0.660

> <Pdih>
1.534

> <Idih>
0.000

> <Tether>
0.000

$$$$
VeraChem MOL file


 26 25  0  0  0  0  0  0  0  0999 V2000     
   20.0750   16.4449   23.1240 N   0  3  0  0  0  0  0  0  0  0  0  0
   19.3379   16.6602   22.4359 H   0  0  0  0  0  0  0  0  0  0  0  0
   19.5851   16.3181   24.0232 H   0  0  0  0  0  0  0  0  0  0  0  0
   21.0523   17.6007   23.2208 C   0  0  0  0  0  0  0  0  0  0  0  0
   21.5431   17.7109   22.2505 H   0  0  0  0  0  0  0  0  0  0  0  0
   21.8115   17.3271   23.9578 H   0  0  0  0  0  0  0  0  0  0  0  0
   20.4043   18.9384   23.6296 C   0  0  0  0  0  0  0  0  0  0  0  0
   19.8862   18.8175   24.5901 H   0  0  0  0  0  0  0  0  0  0  0  0
   21.2101   19.6652   23.7897 H   0  0  0  0  0  0  0  0  0  0  0  0
   19.4266   19.4819   22.5592 C   0  0  0  0  0  0  0  0  0  0  0  0
   18.6801   18.7130   22.3210 H   0  0  0  0  0  0  0  0  0  0  0  0
   19.9767   19.6721   21.6272 H   0  0  0  0  0  0  0  0  0  0  0  0
   18.6678   20.7674   22.9800 C   0  0  0  0  0  0  0  0  0  0  0  0
   17.9799   21.0267   22.1632 H   0  0  0  0  0  0  0  0  0  0  0  0
   18.0284   20.5612   23.8493 H   0  0  0  0  0  0  0  0  0  0  0  0
   19.5705   21.9974   23.2577 C   0  0  0  0  0  0  0  0  0  0  0  0
   19.0463   22.9006   22.9152 H   0  0  0  0  0  0  0  0  0  0  0  0
   20.4912   21.9390   22.6605 H   0  0  0  0  0  0  0  0  0  0  0  0
   19.9108   22.1840   24.7551 C   0  0  0  0  0  0  0  0  0  0  0  0
   20.4563   21.3270   25.1651 H   0  0  0  0  0  0  0  0  0  0  0  0
   18.9982   22.3188   25.3501 H   0  0  0  0  0  0  0  0  0  0  0  0
   20.5355   23.0750   24.8986 H   0  0  0  0  0  0  0  0  0  0  0  0
   20.8140   15.1726   22.7334 C   0  0  0  0  0  0  0  0  0  0  0  0
   21.5668   14.9474   23.4921 H   0  0  0  0  0  0  0  0  0  0  0  0
   20.0994   14.3492   22.6671 H   0  0  0  0  0  0  0  0  0  0  0  0
   21.2972   15.3208   21.7651 H   0  0  0  0  0  0  0  0  0  0  0  0
  1  2  1  0  0  0  0
  1  3  1  0  0  0  0
  1  4  1  0  0  0  0
  4  5  1  0  0  0  0
  4  6  1  0  0  0  0
  4  7  1  0  0  0  0
  7  8  1  0  0  0  0
  7  9  1  0  0  0  0
  7 10  1  0  0  0  0
 10 11  1  0  0  0  0
 10 12  1  0  0  0  0
 10 13  1  0  0  0  0
 13 14  1  0  0  0  0
 13 15  1  0  0  0  0
 13 16  1  0  0  0  0
 16 17  1  0  0  0  0
 16 18  1  0  0  0  0
 16 19  1  0  0  0  0
 19 20  1  0  0  0  0
 19 21  1  0  0  0  0
 19 22  1  0  0  0  0
  1 23  1  0  0  0  0
 23 24  1  0  0  0  0
 23 25  1  0  0  0  0
 23 26  1  0  0  0  0
M  END
> <VConfSearch Rank>
50

> <Conf_Id>
76

> <Delta U+W>
3.468

> <U+W>
25.310

> <U>
74.594

> <W>
-49.283

> <W(PB)>
-51.537

> <W(SA)>
2.253

> <Valence>
4.886

> <Coulomb>
69.332

> <VdW>
0.376

> <VdW6>
-7.329

> <VdW12>
7.705

> <Bond>
0.232

> <Angle>
1.251

> <Pdih>
3.403

> <Idih>
0.000

> <Tether>
0.000

$$$$
VeraChem MOL file


 26 25  0  0  0  0  0  0  0  0999 V2000     
   19.5011   21.7511   23.5516 N   0  3  0  0  0  0  0  0  0  0  0  0
   18.5219   21.4258   23.5592 H   0  0  0  0  0  0  0  0  0  0  0  0
   19.6727   22.0835   22.5899 H   0  0  0  0  0  0  0  0  0  0  0  0
   20.4358   20.6051   23.8832 C   0  0  0  0  0  0  0  0  0  0  0  0
   20.2174   20.2787   24.9032 H   0  0  0  0  0  0  0  0  0  0  0  0
   21.4590   20.9884   23.8561 H   0  0  0  0  0  0  0  0  0  0  0  0
   20.3037   19.4126   22.9188 C   0  0  0  0  0  0  0  0  0  0  0  0
   19.2695   19.0509   22.9330 H   0  0  0  0  0  0  0  0  0  0  0  0
   20.5078   19.7508   21.8942 H   0  0  0  0  0  0  0  0  0  0  0  0
   21.2846   18.2751   23.2924 C   0  0  0  0  0  0  0  0  0  0  0  0
   21.1323   17.9649   24.3355 H   0  0  0  0  0  0  0  0  0  0  0  0
   22.3066   18.6759   23.2416 H   0  0  0  0  0  0  0  0  0  0  0  0
   21.1929   17.0446   22.3521 C   0  0  0  0  0  0  0  0  0  0  0  0
   20.8864   17.3563   21.3441 H   0  0  0  0  0  0  0  0  0  0  0  0
   22.2025   16.6262   22.2374 H   0  0  0  0  0  0  0  0  0  0  0  0
   20.2724   15.9056   22.8607 C   0  0  0  0  0  0  0  0  0  0  0  0
   20.6493   15.5285   23.8218 H   0  0  0  0  0  0  0  0  0  0  0  0
   20.3393   15.0638   22.1573 H   0  0  0  0  0  0  0  0  0  0  0  0
   18.7884   16.3050   23.0140 C   0  0  0  0  0  0  0  0  0  0  0  0
   18.3992   16.7485   22.0884 H   0  0  0  0  0  0  0  0  0  0  0  0
   18.6511   17.0229   23.8318 H   0  0  0  0  0  0  0  0  0  0  0  0
   18.1765   15.4239   23.2468 H   0  0  0  0  0  0  0  0  0  0  0  0
   19.6953   22.8834   24.5505 C   0  0  0  0  0  0  0  0  0  0  0  0
   19.4764   22.5170   25.5559 H   0  0  0  0  0  0  0  0  0  0  0  0
   20.7289   23.2329   24.5008 H   0  0  0  0  0  0  0  0  0  0  0  0
   19.0167   23.7020   24.3004 H   0  0  0  0  0  0  0  0  0  0  0  0
  1  2  1  0  0  0  0
  1  3  1  0  0  0  0
  1  4  1  0  0  0  0
  4  5  1  0  0  0  0
  4  6  1  0  0  0  0
  4  7  1  0  0  0  0
  7  8  1  0  0  0  0
  7  9  1  0  0  0  0
  7 10  1  0  0  0  0
 10 11  1  0  0  0  0
 10 12  1  0  0  0  0
 10 13  1  0  0  0  0
 13 14  1  0  0  0  0
 13 15  1  0  0  0  0
 13 16  1  0  0  0  0
 16 17  1  0  0  0  0
 16 18  1  0  0  0  0
 16 19  1  0  0  0  0
 19 20  1  0  0  0  0
 19 21  1  0  0  0  0
 19 22  1  0  0  0  0
  1 23  1  0  0  0  0
 23 24  1  0  0  0  0
 23 25  1  0  0  0  0
 23 26  1  0  0  0  0
M  END
> <VConfSearch Rank>
51

> <Conf_Id>
123

> <Delta U+W>
3.101

> <U+W>
24.943

> <U>
74.070

> <W>
-49.127

> <W(PB)>
-51.421

> <W(SA)>
2.295

> <Valence>
4.690

> <Coulomb>
69.115

> <VdW>
0.266

> <VdW6>
-6.809

> <VdW12>
7.075

> <Bond>
0.212

> <Angle>
1.133

> <Pdih>
3.345

> <Idih>
0.000

> <Tether>
0.000

$$$$
VeraChem MOL file


 26 25  0  0  0  0  0  0  0  0999 V2000     
   22.3660   17.8183   22.9489 N   0  3  0  0  0  0  0  0  0  0  0  0
   23.0027   18.5624   22.6240 H   0  0  0  0  0  0  0  0  0  0  0  0
   21.7964   17.5639   22.1279 H   0  0  0  0  0  0  0  0  0  0  0  0
   21.4751   18.3419   24.0589 C   0  0  0  0  0  0  0  0  0  0  0  0
   22.1185   18.5971   24.9047 H   0  0  0  0  0  0  0  0  0  0  0  0
   20.8103   17.5315   24.3684 H   0  0  0  0  0  0  0  0  0  0  0  0
   20.6393   19.5750   23.6628 C   0  0  0  0  0  0  0  0  0  0  0  0
   20.1209   19.9384   24.5571 H   0  0  0  0  0  0  0  0  0  0  0  0
   21.3109   20.3844   23.3471 H   0  0  0  0  0  0  0  0  0  0  0  0
   19.6181   19.2682   22.5377 C   0  0  0  0  0  0  0  0  0  0  0  0
   19.0048   18.3965   22.8049 H   0  0  0  0  0  0  0  0  0  0  0  0
   20.1706   18.9855   21.6317 H   0  0  0  0  0  0  0  0  0  0  0  0
   18.7053   20.4733   22.1899 C   0  0  0  0  0  0  0  0  0  0  0  0
   19.2307   21.4187   22.3835 H   0  0  0  0  0  0  0  0  0  0  0  0
   18.5150   20.4576   21.1078 H   0  0  0  0  0  0  0  0  0  0  0  0
   17.3294   20.4719   22.9044 C   0  0  0  0  0  0  0  0  0  0  0  0
   16.7689   19.5697   22.6223 H   0  0  0  0  0  0  0  0  0  0  0  0
   16.7423   21.3228   22.5316 H   0  0  0  0  0  0  0  0  0  0  0  0
   17.4106   20.5635   24.4440 C   0  0  0  0  0  0  0  0  0  0  0  0
   18.0145   21.4244   24.7587 H   0  0  0  0  0  0  0  0  0  0  0  0
   17.8457   19.6537   24.8755 H   0  0  0  0  0  0  0  0  0  0  0  0
   16.4078   20.6823   24.8743 H   0  0  0  0  0  0  0  0  0  0  0  0
   23.1571   16.6152   23.4431 C   0  0  0  0  0  0  0  0  0  0  0  0
   22.4626   15.8306   23.7510 H   0  0  0  0  0  0  0  0  0  0  0  0
   23.7935   16.2483   22.6347 H   0  0  0  0  0  0  0  0  0  0  0  0
   23.7755   16.9161   24.2916 H   0  0  0  0  0  0  0  0  0  0  0  0
  1  2  1  0  0  0  0
  1  3  1  0  0  0  0
  1  4  1  0  0  0  0
  4  5  1  0  0  0  0
  4  6  1  0  0  0  0
  4  7  1  0  0  0  0
  7  8  1  0  0  0  0
  7  9  1  0  0  0  0
  7 10  1  0  0  0  0
 10 11  1  0  0  0  0
 10 12  1  0  0  0  0
 10 13  1  0  0  0  0
 13 14  1  0  0  0  0
 13 15  1  0  0  0  0
 13 16  1  0  0  0  0
 16 17  1  0  0  0  0
 16 18  1  0  0  0  0
 16 19  1  0  0  0  0
 19 20  1  0  0  0  0
 19 21  1  0  0  0  0
 19 22  1  0  0  0  0
  1 23  1  0  0  0  0
 23 24  1  0  0  0  0
 23 25  1  0  0  0  0
 23 26  1  0  0  0  0
M  END
> <VConfSearch Rank>
52

> <Conf_Id>
111

> <Delta U+W>
3.383

> <U+W>
25.225

> <U>
74.516

> <W>
-49.292

> <W(PB)>
-51.558

> <W(SA)>
2.266

> <Valence>
4.842

> <Coulomb>
69.333

> <VdW>
0.342

> <VdW6>
-7.369

> <VdW12>
7.711

> <Bond>
0.232

> <Angle>
1.153

> <Pdih>
3.457

> <Idih>
0.000

> <Tether>
0.000

$$$$
VeraChem MOL file


 26 25  0  0  0  0  0  0  0  0999 V2000     
   22.0245   18.5915   22.0459 N   0  3  0  0  0  0  0  0  0  0  0  0
   22.0651   18.9782   21.0901 H   0  0  0  0  0  0  0  0  0  0  0  0
   21.1869   17.9906   22.0663 H   0  0  0  0  0  0  0  0  0  0  0  0
   21.8818   19.7128   23.0563 C   0  0  0  0  0  0  0  0  0  0  0  0
   22.7814   20.3305   22.9947 H   0  0  0  0  0  0  0  0  0  0  0  0
   21.8457   19.2658   24.0525 H   0  0  0  0  0  0  0  0  0  0  0  0
   20.6373   20.5977   22.8354 C   0  0  0  0  0  0  0  0  0  0  0  0
   20.6432   21.4048   23.5800 H   0  0  0  0  0  0  0  0  0  0  0  0
   20.7148   21.0865   21.8551 H   0  0  0  0  0  0  0  0  0  0  0  0
   19.2914   19.8340   22.9212 C   0  0  0  0  0  0  0  0  0  0  0  0
   19.2368   19.0805   22.1242 H   0  0  0  0  0  0  0  0  0  0  0  0
   18.4824   20.5484   22.7211 H   0  0  0  0  0  0  0  0  0  0  0  0
   19.0587   19.1595   24.2974 C   0  0  0  0  0  0  0  0  0  0  0  0
   19.8796   18.4620   24.5094 H   0  0  0  0  0  0  0  0  0  0  0  0
   19.0858   19.9188   25.0911 H   0  0  0  0  0  0  0  0  0  0  0  0
   17.7277   18.3733   24.3810 C   0  0  0  0  0  0  0  0  0  0  0  0
   17.6967   17.8355   25.3390 H   0  0  0  0  0  0  0  0  0  0  0  0
   17.6998   17.6039   23.5967 H   0  0  0  0  0  0  0  0  0  0  0  0
   16.4731   19.2701   24.2750 C   0  0  0  0  0  0  0  0  0  0  0  0
   16.3898   19.7334   23.2842 H   0  0  0  0  0  0  0  0  0  0  0  0
   16.4932   20.0685   25.0281 H   0  0  0  0  0  0  0  0  0  0  0  0
   15.5633   18.6782   24.4385 H   0  0  0  0  0  0  0  0  0  0  0  0
   23.2744   17.7769   22.3479 C   0  0  0  0  0  0  0  0  0  0  0  0
   23.3642   16.9730   21.6139 H   0  0  0  0  0  0  0  0  0  0  0  0
   24.1496   18.4278   22.2908 H   0  0  0  0  0  0  0  0  0  0  0  0
   23.1932   17.3531   23.3513 H   0  0  0  0  0  0  0  0  0  0  0  0
  1  2  1  0  0  0  0
  1  3  1  0  0  0  0
  1  4  1  0  0  0  0
  4  5  1  0  0  0  0
  4  6  1  0  0  0  0
  4  7  1  0  0  0  0
  7  8  1  0  0  0  0
  7  9  1  0  0  0  0
  7 10  1  0  0  0  0
 10 11  1  0  0  0  0
 10 12  1  0  0  0  0
 10 13  1  0  0  0  0
 13 14  1  0  0  0  0
 13 15  1  0  0  0  0
 13 16  1  0  0  0  0
 16 17  1  0  0  0  0
 16 18  1  0  0  0  0
 16 19  1  0  0  0  0
 19 20  1  0  0  0  0
 19 21  1  0  0  0  0
 19 22  1  0  0  0  0
  1 23  1  0  0  0  0
 23 24  1  0  0  0  0
 23 25  1  0  0  0  0
 23 26  1  0  0  0  0
M  END
> <VConfSearch Rank>
53

> <Conf_Id>
126

> <Delta U+W>
1.519

> <U+W>
23.361

> <U>
72.579

> <W>
-49.218

> <W(PB)>
-51.496

> <W(SA)>
2.279

> <Valence>
2.678

> <Coulomb>
69.622

> <VdW>
0.279

> <VdW6>
-7.328

> <VdW12>
7.608

> <Bond>
0.212

> <Angle>
0.911

> <Pdih>
1.555

> <Idih>
0.000

> <Tether>
0.000

$$$$
VeraChem MOL file


 26 25  0  0  0  0  0  0  0  0999 V2000     
   19.0681   17.1355   24.1899 N   0  3  0  0  0  0  0  0  0  0  0  0
   19.2612   17.9859   24.7401 H   0  0  0  0  0  0  0  0  0  0  0  0
   19.7363   16.4271   24.5308 H   0  0  0  0  0  0  0  0  0  0  0  0
   19.3028   17.4076   22.7170 C   0  0  0  0  0  0  0  0  0  0  0  0
   18.5770   18.1572   22.3933 H   0  0  0  0  0  0  0  0  0  0  0  0
   19.0991   16.4819   22.1728 H   0  0  0  0  0  0  0  0  0  0  0  0
   20.7319   17.8891   22.3910 C   0  0  0  0  0  0  0  0  0  0  0  0
   21.4466   17.1027   22.6675 H   0  0  0  0  0  0  0  0  0  0  0  0
   20.8212   18.0141   21.3037 H   0  0  0  0  0  0  0  0  0  0  0  0
   21.1315   19.2127   23.0914 C   0  0  0  0  0  0  0  0  0  0  0  0
   22.1682   19.4438   22.8144 H   0  0  0  0  0  0  0  0  0  0  0  0
   21.1305   19.0752   24.1808 H   0  0  0  0  0  0  0  0  0  0  0  0
   20.2158   20.4047   22.7124 C   0  0  0  0  0  0  0  0  0  0  0  0
   20.2400   20.5589   21.6248 H   0  0  0  0  0  0  0  0  0  0  0  0
   19.1750   20.1655   22.9671 H   0  0  0  0  0  0  0  0  0  0  0  0
   20.5937   21.7241   23.4288 C   0  0  0  0  0  0  0  0  0  0  0  0
   20.5595   21.5795   24.5177 H   0  0  0  0  0  0  0  0  0  0  0  0
   19.8317   22.4812   23.1962 H   0  0  0  0  0  0  0  0  0  0  0  0
   21.9796   22.2735   23.0202 C   0  0  0  0  0  0  0  0  0  0  0  0
   22.0510   22.3958   21.9317 H   0  0  0  0  0  0  0  0  0  0  0  0
   22.7899   21.6097   23.3460 H   0  0  0  0  0  0  0  0  0  0  0  0
   22.1541   23.2549   23.4798 H   0  0  0  0  0  0  0  0  0  0  0  0
   17.6355   16.6704   24.4099 C   0  0  0  0  0  0  0  0  0  0  0  0
   16.9489   17.4492   24.0709 H   0  0  0  0  0  0  0  0  0  0  0  0
   17.4646   15.7534   23.8417 H   0  0  0  0  0  0  0  0  0  0  0  0
   17.4802   16.4792   25.4741 H   0  0  0  0  0  0  0  0  0  0  0  0
  1  2  1  0  0  0  0
  1  3  1  0  0  0  0
  1  4  1  0  0  0  0
  4  5  1  0  0  0  0
  4  6  1  0  0  0  0
  4  7  1  0  0  0  0
  7  8  1  0  0  0  0
  7  9  1  0  0  0  0
  7 10  1  0  0  0  0
 10 11  1  0  0  0  0
 10 12  1  0  0  0  0
 10 13  1  0  0  0  0
 13 14  1  0  0  0  0
 13 15  1  0  0  0  0
 13 16  1  0  0  0  0
 16 17  1  0  0  0  0
 16 18  1  0  0  0  0
 16 19  1  0  0  0  0
 19 20  1  0  0  0  0
 19 21  1  0  0  0  0
 19 22  1  0  0  0  0
  1 23  1  0  0  0  0
 23 24  1  0  0  0  0
 23 25  1  0  0  0  0
 23 26  1  0  0  0  0
M  END
> <VConfSearch Rank>
54

> <Conf_Id>
134

> <Delta U+W>
1.464

> <U+W>
23.306

> <U>
72.579

> <W>
-49.273

> <W(PB)>
-51.540

> <W(SA)>
2.267

> <Valence>
2.677

> <Coulomb>
69.622

> <VdW>
0.280

> <VdW6>
-7.328

> <VdW12>
7.608

> <Bond>
0.212

> <Angle>
0.911

> <Pdih>
1.555

> <Idih>
0.000

> <Tether>
0.000

$$$$
VeraChem MOL file


 26 25  0  0  0  0  0  0  0  0999 V2000     
   20.3610   21.2007   25.1380 N   0  3  0  0  0  0  0  0  0  0  0  0
   21.3369   20.8848   25.2506 H   0  0  0  0  0  0  0  0  0  0  0  0
   19.8541   20.8226   25.9534 H   0  0  0  0  0  0  0  0  0  0  0  0
   19.7759   20.6451   23.8551 C   0  0  0  0  0  0  0  0  0  0  0  0
   20.3436   21.0621   23.0194 H   0  0  0  0  0  0  0  0  0  0  0  0
   18.7434   20.9949   23.7786 H   0  0  0  0  0  0  0  0  0  0  0  0
   19.8083   19.1075   23.7869 C   0  0  0  0  0  0  0  0  0  0  0  0
   20.8472   18.7674   23.8831 H   0  0  0  0  0  0  0  0  0  0  0  0
   19.2504   18.6923   24.6367 H   0  0  0  0  0  0  0  0  0  0  0  0
   19.2007   18.5897   22.4621 C   0  0  0  0  0  0  0  0  0  0  0  0
   19.7815   18.9725   21.6123 H   0  0  0  0  0  0  0  0  0  0  0  0
   18.1897   19.0048   22.3473 H   0  0  0  0  0  0  0  0  0  0  0  0
   19.1051   17.0437   22.3850 C   0  0  0  0  0  0  0  0  0  0  0  0
   18.4291   16.6877   23.1745 H   0  0  0  0  0  0  0  0  0  0  0  0
   18.6279   16.7674   21.4347 H   0  0  0  0  0  0  0  0  0  0  0  0
   20.4542   16.2894   22.5055 C   0  0  0  0  0  0  0  0  0  0  0  0
   20.2581   15.2102   22.4376 H   0  0  0  0  0  0  0  0  0  0  0  0
   20.8930   16.4518   23.4990 H   0  0  0  0  0  0  0  0  0  0  0  0
   21.4764   16.6785   21.4134 C   0  0  0  0  0  0  0  0  0  0  0  0
   21.0529   16.5423   20.4099 H   0  0  0  0  0  0  0  0  0  0  0  0
   22.3746   16.0518   21.4865 H   0  0  0  0  0  0  0  0  0  0  0  0
   21.7944   17.7237   21.5138 H   0  0  0  0  0  0  0  0  0  0  0  0
   20.2903   22.7214   25.1235 C   0  0  0  0  0  0  0  0  0  0  0  0
   19.2467   23.0317   25.0371 H   0  0  0  0  0  0  0  0  0  0  0  0
   20.7145   23.1086   26.0526 H   0  0  0  0  0  0  0  0  0  0  0  0
   20.8605   23.0994   24.2720 H   0  0  0  0  0  0  0  0  0  0  0  0
  1  2  1  0  0  0  0
  1  3  1  0  0  0  0
  1  4  1  0  0  0  0
  4  5  1  0  0  0  0
  4  6  1  0  0  0  0
  4  7  1  0  0  0  0
  7  8  1  0  0  0  0
  7  9  1  0  0  0  0
  7 10  1  0  0  0  0
 10 11  1  0  0  0  0
 10 12  1  0  0  0  0
 10 13  1  0  0  0  0
 13 14  1  0  0  0  0
 13 15  1  0  0  0  0
 13 16  1  0  0  0  0
 16 17  1  0  0  0  0
 16 18  1  0  0  0  0
 16 19  1  0  0  0  0
 19 20  1  0  0  0  0
 19 21  1  0  0  0  0
 19 22  1  0  0  0  0
  1 23  1  0  0  0  0
 23 24  1  0  0  0  0
 23 25  1  0  0  0  0
 23 26  1  0  0  0  0
M  END
> <VConfSearch Rank>
55

> <Conf_Id>
30

> <Delta U+W>
0.910

> <U+W>
22.752

> <U>
71.870

> <W>
-49.118

> <W(PB)>
-51.409

> <W(SA)>
2.290

> <Valence>
2.682

> <Coulomb>
68.933

> <VdW>
0.255

> <VdW6>
-6.833

> <VdW12>
7.088

> <Bond>
0.205

> <Angle>
1.003

> <Pdih>
1.473

> <Idih>
0.000

> <Tether>
0.000

$$$$
VeraChem MOL file


 26 25  0  0  0  0  0  0  0  0999 V2000     
   18.6881   20.2683   21.1487 N   0  3  0  0  0  0  0  0  0  0  0  0
   18.0934   19.4921   20.8190 H   0  0  0  0  0  0  0  0  0  0  0  0
   19.5872   20.1542   20.6554 H   0  0  0  0  0  0  0  0  0  0  0  0
   18.8966   20.1674   22.6464 C   0  0  0  0  0  0  0  0  0  0  0  0
   17.9230   20.2847   23.1290 H   0  0  0  0  0  0  0  0  0  0  0  0
   19.5353   20.9996   22.9529 H   0  0  0  0  0  0  0  0  0  0  0  0
   19.5346   18.8366   23.0841 C   0  0  0  0  0  0  0  0  0  0  0  0
   18.8981   18.0024   22.7606 H   0  0  0  0  0  0  0  0  0  0  0  0
   20.5023   18.7213   22.5797 H   0  0  0  0  0  0  0  0  0  0  0  0
   19.7257   18.7814   24.6181 C   0  0  0  0  0  0  0  0  0  0  0  0
   18.7601   18.9769   25.1049 H   0  0  0  0  0  0  0  0  0  0  0  0
   20.3938   19.5918   24.9387 H   0  0  0  0  0  0  0  0  0  0  0  0
   20.2626   17.4189   25.1284 C   0  0  0  0  0  0  0  0  0  0  0  0
   20.3286   17.4547   26.2246 H   0  0  0  0  0  0  0  0  0  0  0  0
   19.5270   16.6359   24.8979 H   0  0  0  0  0  0  0  0  0  0  0  0
   21.6398   16.9934   24.5578 C   0  0  0  0  0  0  0  0  0  0  0  0
   21.5683   16.8305   23.4741 H   0  0  0  0  0  0  0  0  0  0  0  0
   21.9111   16.0199   24.9895 H   0  0  0  0  0  0  0  0  0  0  0  0
   22.7699   18.0036   24.8603 C   0  0  0  0  0  0  0  0  0  0  0  0
   22.6018   18.9602   24.3501 H   0  0  0  0  0  0  0  0  0  0  0  0
   23.7369   17.6126   24.5183 H   0  0  0  0  0  0  0  0  0  0  0  0
   22.8482   18.1971   25.9380 H   0  0  0  0  0  0  0  0  0  0  0  0
   18.0558   21.6094   20.8029 C   0  0  0  0  0  0  0  0  0  0  0  0
   17.9110   21.6690   19.7219 H   0  0  0  0  0  0  0  0  0  0  0  0
   17.0917   21.6932   21.3093 H   0  0  0  0  0  0  0  0  0  0  0  0
   18.7176   22.4138   21.1314 H   0  0  0  0  0  0  0  0  0  0  0  0
  1  2  1  0  0  0  0
  1  3  1  0  0  0  0
  1  4  1  0  0  0  0
  4  5  1  0  0  0  0
  4  6  1  0  0  0  0
  4  7  1  0  0  0  0
  7  8  1  0  0  0  0
  7  9  1  0  0  0  0
  7 10  1  0  0  0  0
 10 11  1  0  0  0  0
 10 12  1  0  0  0  0
 10 13  1  0  0  0  0
 13 14  1  0  0  0  0
 13 15  1  0  0  0  0
 13 16  1  0  0  0  0
 16 17  1  0  0  0  0
 16 18  1  0  0  0  0
 16 19  1  0  0  0  0
 19 20  1  0  0  0  0
 19 21  1  0  0  0  0
 19 22  1  0  0  0  0
  1 23  1  0  0  0  0
 23 24  1  0  0  0  0
 23 25  1  0  0  0  0
 23 26  1  0  0  0  0
M  END
> <VConfSearch Rank>
56

> <Conf_Id>
29

> <Delta U+W>
0.886

> <U+W>
22.729

> <U>
71.870

> <W>
-49.141

> <W(PB)>
-51.404

> <W(SA)>
2.262

> <Valence>
2.682

> <Coulomb>
68.933

> <VdW>
0.255

> <VdW6>
-6.833

> <VdW12>
7.088

> <Bond>
0.205

> <Angle>
1.003

> <Pdih>
1.473

> <Idih>
0.000

> <Tether>
0.000

$$$$
VeraChem MOL file


 26 25  0  0  0  0  0  0  0  0999 V2000     
   22.0757   17.8084   24.2998 N   0  3  0  0  0  0  0  0  0  0  0  0
   21.8711   16.9428   24.8228 H   0  0  0  0  0  0  0  0  0  0  0  0
   22.0932   18.5592   25.0073 H   0  0  0  0  0  0  0  0  0  0  0  0
   20.9854   18.0739   23.2815 C   0  0  0  0  0  0  0  0  0  0  0  0
   20.9919   17.2527   22.5604 H   0  0  0  0  0  0  0  0  0  0  0  0
   21.2389   18.9972   22.7549 H   0  0  0  0  0  0  0  0  0  0  0  0
   19.5841   18.2019   23.9085 C   0  0  0  0  0  0  0  0  0  0  0  0
   19.3538   17.2836   24.4647 H   0  0  0  0  0  0  0  0  0  0  0  0
   19.5805   19.0166   24.6437 H   0  0  0  0  0  0  0  0  0  0  0  0
   18.4764   18.4375   22.8517 C   0  0  0  0  0  0  0  0  0  0  0  0
   17.5042   18.5007   23.3585 H   0  0  0  0  0  0  0  0  0  0  0  0
   18.4135   17.5544   22.2008 H   0  0  0  0  0  0  0  0  0  0  0  0
   18.6809   19.6939   21.9625 C   0  0  0  0  0  0  0  0  0  0  0  0
   19.5682   19.5533   21.3305 H   0  0  0  0  0  0  0  0  0  0  0  0
   17.8339   19.7727   21.2672 H   0  0  0  0  0  0  0  0  0  0  0  0
   18.8212   21.0315   22.7330 C   0  0  0  0  0  0  0  0  0  0  0  0
   18.9723   21.8407   22.0049 H   0  0  0  0  0  0  0  0  0  0  0  0
   19.7243   21.0174   23.3576 H   0  0  0  0  0  0  0  0  0  0  0  0
   17.5896   21.3696   23.6035 C   0  0  0  0  0  0  0  0  0  0  0  0
   17.7013   22.3620   24.0591 H   0  0  0  0  0  0  0  0  0  0  0  0
   17.4606   20.6452   24.4172 H   0  0  0  0  0  0  0  0  0  0  0  0
   16.6716   21.3780   23.0018 H   0  0  0  0  0  0  0  0  0  0  0  0
   23.4234   17.7032   23.5995 C   0  0  0  0  0  0  0  0  0  0  0  0
   24.1997   17.5116   24.3437 H   0  0  0  0  0  0  0  0  0  0  0  0
   23.3912   16.8819   22.8803 H   0  0  0  0  0  0  0  0  0  0  0  0
   23.6330   18.6414   23.0810 H   0  0  0  0  0  0  0  0  0  0  0  0
  1  2  1  0  0  0  0
  1  3  1  0  0  0  0
  1  4  1  0  0  0  0
  4  5  1  0  0  0  0
  4  6  1  0  0  0  0
  4  7  1  0  0  0  0
  7  8  1  0  0  0  0
  7  9  1  0  0  0  0
  7 10  1  0  0  0  0
 10 11  1  0  0  0  0
 10 12  1  0  0  0  0
 10 13  1  0  0  0  0
 13 14  1  0  0  0  0
 13 15  1  0  0  0  0
 13 16  1  0  0  0  0
 16 17  1  0  0  0  0
 16 18  1  0  0  0  0
 16 19  1  0  0  0  0
 19 20  1  0  0  0  0
 19 21  1  0  0  0  0
 19 22  1  0  0  0  0
  1 23  1  0  0  0  0
 23 24  1  0  0  0  0
 23 25  1  0  0  0  0
 23 26  1  0  0  0  0
M  END
> <VConfSearch Rank>
57

> <Conf_Id>
82

> <Delta U+W>
1.026

> <U+W>
22.868

> <U>
72.455

> <W>
-49.586

> <W(PB)>
-51.821

> <W(SA)>
2.234

> <Valence>
2.908

> <Coulomb>
69.435

> <VdW>
0.112

> <VdW6>
-7.765

> <VdW12>
7.877

> <Bond>
0.233

> <Angle>
1.170

> <Pdih>
1.506

> <Idih>
0.000

> <Tether>
0.000

$$$$
VeraChem MOL file


 26 25  0  0  0  0  0  0  0  0999 V2000     
   21.1317   20.7517   25.0729 N   0  3  0  0  0  0  0  0  0  0  0  0
   21.9308   20.0997   25.1033 H   0  0  0  0  0  0  0  0  0  0  0  0
   20.7170   20.7222   26.0173 H   0  0  0  0  0  0  0  0  0  0  0  0
   20.1196   20.2916   24.0431 C   0  0  0  0  0  0  0  0  0  0  0  0
   20.5991   20.3349   23.0622 H   0  0  0  0  0  0  0  0  0  0  0  0
   19.2866   20.9990   24.0514 H   0  0  0  0  0  0  0  0  0  0  0  0
   19.5925   18.8672   24.3008 C   0  0  0  0  0  0  0  0  0  0  0  0
   20.4301   18.1581   24.3077 H   0  0  0  0  0  0  0  0  0  0  0  0
   19.1448   18.8252   25.3026 H   0  0  0  0  0  0  0  0  0  0  0  0
   18.5332   18.4253   23.2607 C   0  0  0  0  0  0  0  0  0  0  0  0
   17.6507   19.0730   23.3560 H   0  0  0  0  0  0  0  0  0  0  0  0
   18.1855   17.4138   23.5098 H   0  0  0  0  0  0  0  0  0  0  0  0
   19.0151   18.4599   21.7850 C   0  0  0  0  0  0  0  0  0  0  0  0
   18.1960   18.1120   21.1406 H   0  0  0  0  0  0  0  0  0  0  0  0
   19.2025   19.5002   21.4865 H   0  0  0  0  0  0  0  0  0  0  0  0
   20.2802   17.6163   21.4843 C   0  0  0  0  0  0  0  0  0  0  0  0
   21.1417   18.0126   22.0383 H   0  0  0  0  0  0  0  0  0  0  0  0
   20.5305   17.7278   20.4201 H   0  0  0  0  0  0  0  0  0  0  0  0
   20.1040   16.1134   21.7989 C   0  0  0  0  0  0  0  0  0  0  0  0
   19.9594   15.9409   22.8726 H   0  0  0  0  0  0  0  0  0  0  0  0
   20.9933   15.5489   21.4903 H   0  0  0  0  0  0  0  0  0  0  0  0
   19.2402   15.6972   21.2645 H   0  0  0  0  0  0  0  0  0  0  0  0
   21.6042   22.1603   24.7409 C   0  0  0  0  0  0  0  0  0  0  0  0
   20.7471   22.8373   24.7471 H   0  0  0  0  0  0  0  0  0  0  0  0
   22.3321   22.4798   25.4900 H   0  0  0  0  0  0  0  0  0  0  0  0
   22.0684   22.1597   23.7522 H   0  0  0  0  0  0  0  0  0  0  0  0
  1  2  1  0  0  0  0
  1  3  1  0  0  0  0
  1  4  1  0  0  0  0
  4  5  1  0  0  0  0
  4  6  1  0  0  0  0
  4  7  1  0  0  0  0
  7  8  1  0  0  0  0
  7  9  1  0  0  0  0
  7 10  1  0  0  0  0
 10 11  1  0  0  0  0
 10 12  1  0  0  0  0
 10 13  1  0  0  0  0
 13 14  1  0  0  0  0
 13 15  1  0  0  0  0
 13 16  1  0  0  0  0
 16 17  1  0  0  0  0
 16 18  1  0  0  0  0
 16 19  1  0  0  0  0
 19 20  1  0  0  0  0
 19 21  1  0  0  0  0
 19 22  1  0  0  0  0
  1 23  1  0  0  0  0
 23 24  1  0  0  0  0
 23 25  1  0  0  0  0
 23 26  1  0  0  0  0
M  END
> <VConfSearch Rank>
58

> <Conf_Id>
71

> <Delta U+W>
1.096

> <U+W>
22.938

> <U>
72.455

> <W>
-49.517

> <W(PB)>
-51.795

> <W(SA)>
2.278

> <Valence>
2.908

> <Coulomb>
69.435

> <VdW>
0.112

> <VdW6>
-7.766

> <VdW12>
7.877

> <Bond>
0.233

> <Angle>
1.170

> <Pdih>
1.506

> <Idih>
0.000

> <Tether>
0.000

$$$$
VeraChem MOL file


 26 25  0  0  0  0  0  0  0  0999 V2000     
   22.3661   18.6708   23.8138 N   0  3  0  0  0  0  0  0  0  0  0  0
   21.7043   19.1175   24.4658 H   0  0  0  0  0  0  0  0  0  0  0  0
   23.2358   19.2216   23.8918 H   0  0  0  0  0  0  0  0  0  0  0  0
   21.8330   18.7571   22.3925 C   0  0  0  0  0  0  0  0  0  0  0  0
   22.5516   18.2577   21.7377 H   0  0  0  0  0  0  0  0  0  0  0  0
   21.8086   19.8140   22.1166 H   0  0  0  0  0  0  0  0  0  0  0  0
   20.4289   18.1467   22.1800 C   0  0  0  0  0  0  0  0  0  0  0  0
   20.1478   18.2733   21.1261 H   0  0  0  0  0  0  0  0  0  0  0  0
   20.4740   17.0634   22.3515 H   0  0  0  0  0  0  0  0  0  0  0  0
   19.3267   18.7608   23.0795 C   0  0  0  0  0  0  0  0  0  0  0  0
   19.5583   18.5699   24.1358 H   0  0  0  0  0  0  0  0  0  0  0  0
   18.3866   18.2331   22.8732 H   0  0  0  0  0  0  0  0  0  0  0  0
   19.1286   20.2811   22.8507 C   0  0  0  0  0  0  0  0  0  0  0  0
   20.0758   20.8071   23.0274 H   0  0  0  0  0  0  0  0  0  0  0  0
   18.8645   20.4657   21.8002 H   0  0  0  0  0  0  0  0  0  0  0  0
   18.0525   20.9074   23.7707 C   0  0  0  0  0  0  0  0  0  0  0  0
   18.0568   21.9968   23.6257 H   0  0  0  0  0  0  0  0  0  0  0  0
   18.3180   20.7373   24.8235 H   0  0  0  0  0  0  0  0  0  0  0  0
   16.6257   20.3768   23.5019 C   0  0  0  0  0  0  0  0  0  0  0  0
   16.5357   19.3131   23.7544 H   0  0  0  0  0  0  0  0  0  0  0  0
   16.3485   20.5053   22.4475 H   0  0  0  0  0  0  0  0  0  0  0  0
   15.8925   20.9222   24.1100 H   0  0  0  0  0  0  0  0  0  0  0  0
   22.6294   17.2246   24.2169 C   0  0  0  0  0  0  0  0  0  0  0  0
   23.0387   17.2045   25.2293 H   0  0  0  0  0  0  0  0  0  0  0  0
   21.6918   16.6657   24.1885 H   0  0  0  0  0  0  0  0  0  0  0  0
   23.3457   16.7830   23.5206 H   0  0  0  0  0  0  0  0  0  0  0  0
  1  2  1  0  0  0  0
  1  3  1  0  0  0  0
  1  4  1  0  0  0  0
  4  5  1  0  0  0  0
  4  6  1  0  0  0  0
  4  7  1  0  0  0  0
  7  8  1  0  0  0  0
  7  9  1  0  0  0  0
  7 10  1  0  0  0  0
 10 11  1  0  0  0  0
 10 12  1  0  0  0  0
 10 13  1  0  0  0  0
 13 14  1  0  0  0  0
 13 15  1  0  0  0  0
 13 16  1  0  0  0  0
 16 17  1  0  0  0  0
 16 18  1  0  0  0  0
 16 19  1  0  0  0  0
 19 20  1  0  0  0  0
 19 21  1  0  0  0  0
 19 22  1  0  0  0  0
  1 23  1  0  0  0  0
 23 24  1  0  0  0  0
 23 25  1  0  0  0  0
 23 26  1  0  0  0  0
M  END
> <VConfSearch Rank>
59

> <Conf_Id>
84

> <Delta U+W>
1.456

> <U+W>
23.298

> <U>
73.042

> <W>
-49.744

> <W(PB)>
-51.966

> <W(SA)>
2.222

> <Valence>
2.938

> <Coulomb>
69.625

> <VdW>
0.478

> <VdW6>
-8.182

> <VdW12>
8.660

> <Bond>
0.253

> <Angle>
1.038

> <Pdih>
1.647

> <Idih>
0.000

> <Tether>
0.000

$$$$
VeraChem MOL file


 26 25  0  0  0  0  0  0  0  0999 V2000     
   19.0441   21.2360   23.8269 N   0  3  0  0  0  0  0  0  0  0  0  0
   18.5572   20.5102   23.2797 H   0  0  0  0  0  0  0  0  0  0  0  0
   19.0940   22.0615   23.2098 H   0  0  0  0  0  0  0  0  0  0  0  0
   20.4408   20.7661   24.1831 C   0  0  0  0  0  0  0  0  0  0  0  0
   20.3468   19.8965   24.8379 H   0  0  0  0  0  0  0  0  0  0  0  0
   20.9250   21.5660   24.7490 H   0  0  0  0  0  0  0  0  0  0  0  0
   21.3092   20.4062   22.9597 C   0  0  0  0  0  0  0  0  0  0  0  0
   21.4406   21.3006   22.3363 H   0  0  0  0  0  0  0  0  0  0  0  0
   22.3120   20.1284   23.3104 H   0  0  0  0  0  0  0  0  0  0  0  0
   20.7348   19.2570   22.0933 C   0  0  0  0  0  0  0  0  0  0  0  0
   21.4141   19.0854   21.2468 H   0  0  0  0  0  0  0  0  0  0  0  0
   19.7750   19.5621   21.6554 H   0  0  0  0  0  0  0  0  0  0  0  0
   20.5560   17.9337   22.8761 C   0  0  0  0  0  0  0  0  0  0  0  0
   21.5131   17.6451   23.3322 H   0  0  0  0  0  0  0  0  0  0  0  0
   19.8422   18.0761   23.6985 H   0  0  0  0  0  0  0  0  0  0  0  0
   20.0557   16.7908   21.9649 C   0  0  0  0  0  0  0  0  0  0  0  0
   20.7681   16.6318   21.1432 H   0  0  0  0  0  0  0  0  0  0  0  0
   19.0991   17.0747   21.5042 H   0  0  0  0  0  0  0  0  0  0  0  0
   19.8753   15.4725   22.7475 C   0  0  0  0  0  0  0  0  0  0  0  0
   20.8237   15.1444   23.1924 H   0  0  0  0  0  0  0  0  0  0  0  0
   19.5205   14.6732   22.0840 H   0  0  0  0  0  0  0  0  0  0  0  0
   19.1413   15.5899   23.5554 H   0  0  0  0  0  0  0  0  0  0  0  0
   18.2668   21.5609   25.0947 C   0  0  0  0  0  0  0  0  0  0  0  0
   18.7855   22.3519   25.6409 H   0  0  0  0  0  0  0  0  0  0  0  0
   17.2634   21.8968   24.8237 H   0  0  0  0  0  0  0  0  0  0  0  0
   18.2009   20.6645   25.7153 H   0  0  0  0  0  0  0  0  0  0  0  0
  1  2  1  0  0  0  0
  1  3  1  0  0  0  0
  1  4  1  0  0  0  0
  4  5  1  0  0  0  0
  4  6  1  0  0  0  0
  4  7  1  0  0  0  0
  7  8  1  0  0  0  0
  7  9  1  0  0  0  0
  7 10  1  0  0  0  0
 10 11  1  0  0  0  0
 10 12  1  0  0  0  0
 10 13  1  0  0  0  0
 13 14  1  0  0  0  0
 13 15  1  0  0  0  0
 13 16  1  0  0  0  0
 16 17  1  0  0  0  0
 16 18  1  0  0  0  0
 16 19  1  0  0  0  0
 19 20  1  0  0  0  0
 19 21  1  0  0  0  0
 19 22  1  0  0  0  0
  1 23  1  0  0  0  0
 23 24  1  0  0  0  0
 23 25  1  0  0  0  0
 23 26  1  0  0  0  0
M  END
> <VConfSearch Rank>
60

> <Conf_Id>
73

> <Delta U+W>
0.884

> <U+W>
22.726

> <U>
71.905

> <W>
-49.179

> <W(PB)>
-51.494

> <W(SA)>
2.315

> <Valence>
2.125

> <Coulomb>
69.686

> <VdW>
0.093

> <VdW6>
-6.766

> <VdW12>
6.859

> <Bond>
0.169

> <Angle>
0.621

> <Pdih>
1.336

> <Idih>
0.000

> <Tether>
0.000

$$$$
VeraChem MOL file


 26 25  0  0  0  0  0  0  0  0999 V2000     
   21.6357   21.8263   22.6570 N   0  3  0  0  0  0  0  0  0  0  0  0
   22.4310   21.3798   22.1742 H   0  0  0  0  0  0  0  0  0  0  0  0
   21.9564   21.9851   23.6249 H   0  0  0  0  0  0  0  0  0  0  0  0
   20.4339   20.9031   22.6490 C   0  0  0  0  0  0  0  0  0  0  0  0
   20.1321   20.7545   21.6091 H   0  0  0  0  0  0  0  0  0  0  0  0
   19.6198   21.4080   23.1751 H   0  0  0  0  0  0  0  0  0  0  0  0
   20.7095   19.5394   23.3083 C   0  0  0  0  0  0  0  0  0  0  0  0
   21.5389   19.0429   22.7870 H   0  0  0  0  0  0  0  0  0  0  0  0
   21.0282   19.6942   24.3477 H   0  0  0  0  0  0  0  0  0  0  0  0
   19.4586   18.6334   23.2770 C   0  0  0  0  0  0  0  0  0  0  0  0
   19.1396   18.4854   22.2358 H   0  0  0  0  0  0  0  0  0  0  0  0
   18.6295   19.1360   23.7945 H   0  0  0  0  0  0  0  0  0  0  0  0
   19.7234   17.2608   23.9367 C   0  0  0  0  0  0  0  0  0  0  0  0
   20.5523   16.7581   23.4193 H   0  0  0  0  0  0  0  0  0  0  0  0
   20.0423   17.4087   24.9779 H   0  0  0  0  0  0  0  0  0  0  0  0
   18.4722   16.3550   23.9053 C   0  0  0  0  0  0  0  0  0  0  0  0
   18.1506   16.2020   22.8655 H   0  0  0  0  0  0  0  0  0  0  0  0
   17.6406   16.8525   24.4240 H   0  0  0  0  0  0  0  0  0  0  0  0
   18.7404   14.9853   24.5648 C   0  0  0  0  0  0  0  0  0  0  0  0
   17.8410   14.3568   24.5328 H   0  0  0  0  0  0  0  0  0  0  0  0
   19.0311   15.1037   25.6168 H   0  0  0  0  0  0  0  0  0  0  0  0
   19.5452   14.4481   24.0462 H   0  0  0  0  0  0  0  0  0  0  0  0
   21.2789   23.1472   21.9892 C   0  0  0  0  0  0  0  0  0  0  0  0
   20.4583   23.6162   22.5366 H   0  0  0  0  0  0  0  0  0  0  0  0
   22.1527   23.8024   22.0016 H   0  0  0  0  0  0  0  0  0  0  0  0
   20.9749   22.9574   20.9574 H   0  0  0  0  0  0  0  0  0  0  0  0
  1  2  1  0  0  0  0
  1  3  1  0  0  0  0
  1  4  1  0  0  0  0
  4  5  1  0  0  0  0
  4  6  1  0  0  0  0
  4  7  1  0  0  0  0
  7  8  1  0  0  0  0
  7  9  1  0  0  0  0
  7 10  1  0  0  0  0
 10 11  1  0  0  0  0
 10 12  1  0  0  0  0
 10 13  1  0  0  0  0
 13 14  1  0  0  0  0
 13 15  1  0  0  0  0
 13 16  1  0  0  0  0
 16 17  1  0  0  0  0
 16 18  1  0  0  0  0
 16 19  1  0  0  0  0
 19 20  1  0  0  0  0
 19 21  1  0  0  0  0
 19 22  1  0  0  0  0
  1 23  1  0  0  0  0
 23 24  1  0  0  0  0
 23 25  1  0  0  0  0
 23 26  1  0  0  0  0
M  END
> <VConfSearch Rank>
61

> <Conf_Id>
11

> <Delta U+W>
0.000

> <U+W>
21.842

> <U>
70.357

> <W>
-48.515

> <W(PB)>
-50.856

> <W(SA)>
2.341

> <Valence>
1.714

> <Coulomb>
68.480

> <VdW>
0.163

> <VdW6>
-5.268

> <VdW12>
5.431

> <Bond>
0.126

> <Angle>
0.350

> <Pdih>
1.238

> <Idih>
0.000

> <Tether>
0.000

$$$$
VeraChem MOL file


 26 25  0  0  0  0  0  0  0  0999 V2000     
   20.7168   21.9013   24.9323 N   0  3  0  0  0  0  0  0  0  0  0  0
   21.5422   22.4839   25.1454 H   0  0  0  0  0  0  0  0  0  0  0  0
   20.4052   21.5373   25.8461 H   0  0  0  0  0  0  0  0  0  0  0  0
   21.1251   20.7553   24.0217 C   0  0  0  0  0  0  0  0  0  0  0  0
   22.0109   20.2906   24.4622 H   0  0  0  0  0  0  0  0  0  0  0  0
   21.4095   21.1784   23.0550 H   0  0  0  0  0  0  0  0  0  0  0  0
   20.0401   19.6772   23.8236 C   0  0  0  0  0  0  0  0  0  0  0  0
   19.7252   19.2934   24.8030 H   0  0  0  0  0  0  0  0  0  0  0  0
   19.1548   20.1235   23.3526 H   0  0  0  0  0  0  0  0  0  0  0  0
   20.5561   18.5124   22.9499 C   0  0  0  0  0  0  0  0  0  0  0  0
   21.4437   18.0668   23.4205 H   0  0  0  0  0  0  0  0  0  0  0  0
   20.8762   18.9015   21.9733 H   0  0  0  0  0  0  0  0  0  0  0  0
   19.4783   17.4235   22.7445 C   0  0  0  0  0  0  0  0  0  0  0  0
   19.1580   17.0345   23.7211 H   0  0  0  0  0  0  0  0  0  0  0  0
   18.5909   17.8688   22.2737 H   0  0  0  0  0  0  0  0  0  0  0  0
   19.9947   16.2586   21.8707 C   0  0  0  0  0  0  0  0  0  0  0  0
   20.8812   15.8081   22.3388 H   0  0  0  0  0  0  0  0  0  0  0  0
   20.3143   16.6424   20.8916 H   0  0  0  0  0  0  0  0  0  0  0  0
   18.9158   15.1734   21.6678 C   0  0  0  0  0  0  0  0  0  0  0  0
   19.3010   14.3554   21.0452 H   0  0  0  0  0  0  0  0  0  0  0  0
   18.0289   15.5865   21.1698 H   0  0  0  0  0  0  0  0  0  0  0  0
   18.6004   14.7456   22.6283 H   0  0  0  0  0  0  0  0  0  0  0  0
   19.6309   22.7575   24.2905 C   0  0  0  0  0  0  0  0  0  0  0  0
   18.7389   22.1492   24.1283 H   0  0  0  0  0  0  0  0  0  0  0  0
   19.3915   23.5892   24.9569 H   0  0  0  0  0  0  0  0  0  0  0  0
   19.9955   23.1432   23.3360 H   0  0  0  0  0  0  0  0  0  0  0  0
  1  2  1  0  0  0  0
  1  3  1  0  0  0  0
  1  4  1  0  0  0  0
  4  5  1  0  0  0  0
  4  6  1  0  0  0  0
  4  7  1  0  0  0  0
  7  8  1  0  0  0  0
  7  9  1  0  0  0  0
  7 10  1  0  0  0  0
 10 11  1  0  0  0  0
 10 12  1  0  0  0  0
 10 13  1  0  0  0  0
 13 14  1  0  0  0  0
 13 15  1  0  0  0  0
 13 16  1  0  0  0  0
 16 17  1  0  0  0  0
 16 18  1  0  0  0  0
 16 19  1  0  0  0  0
 19 20  1  0  0  0  0
 19 21  1  0  0  0  0
 19 22  1  0  0  0  0
  1 23  1  0  0  0  0
 23 24  1  0  0  0  0
 23 25  1  0  0  0  0
 23 26  1  0  0  0  0
M  END
> <VConfSearch Rank>
62

> <Conf_Id>
102

> <Delta U+W>
0.121

> <U+W>
21.963

> <U>
70.745

> <W>
-48.782

> <W(PB)>
-51.111

> <W(SA)>
2.329

> <Valence>
1.993

> <Coulomb>
68.323

> <VdW>
0.429

> <VdW6>
-5.973

> <VdW12>
6.402

> <Bond>
0.161

> <Angle>
0.472

> <Pdih>
1.360

> <Idih>
0.000

> <Tether>
0.000

$$$$
VeraChem MOL file


 26 25  0  0  0  0  0  0  0  0999 V2000     
   21.6665   17.9157   20.4928 N   0  3  0  0  0  0  0  0  0  0  0  0
   20.8665   17.3418   20.1846 H   0  0  0  0  0  0  0  0  0  0  0  0
   22.5020   17.3591   20.2517 H   0  0  0  0  0  0  0  0  0  0  0  0
   21.6132   18.1269   21.9967 C   0  0  0  0  0  0  0  0  0  0  0  0
   22.4518   18.7695   22.2764 H   0  0  0  0  0  0  0  0  0  0  0  0
   21.7622   17.1515   22.4668 H   0  0  0  0  0  0  0  0  0  0  0  0
   20.2924   18.7344   22.5116 C   0  0  0  0  0  0  0  0  0  0  0  0
   20.1447   19.7290   22.0715 H   0  0  0  0  0  0  0  0  0  0  0  0
   19.4517   18.1088   22.1836 H   0  0  0  0  0  0  0  0  0  0  0  0
   20.2868   18.8470   24.0523 C   0  0  0  0  0  0  0  0  0  0  0  0
   21.1332   19.4683   24.3768 H   0  0  0  0  0  0  0  0  0  0  0  0
   20.4364   17.8514   24.4929 H   0  0  0  0  0  0  0  0  0  0  0  0
   18.9673   19.4536   24.5818 C   0  0  0  0  0  0  0  0  0  0  0  0
   18.8176   20.4493   24.1417 H   0  0  0  0  0  0  0  0  0  0  0  0
   18.1208   18.8326   24.2572 H   0  0  0  0  0  0  0  0  0  0  0  0
   18.9619   19.5660   26.1228 C   0  0  0  0  0  0  0  0  0  0  0  0
   19.8057   20.1883   26.4525 H   0  0  0  0  0  0  0  0  0  0  0  0
   19.1087   18.5719   26.5680 H   0  0  0  0  0  0  0  0  0  0  0  0
   17.6430   20.1723   26.6478 C   0  0  0  0  0  0  0  0  0  0  0  0
   17.4851   21.1819   26.2466 H   0  0  0  0  0  0  0  0  0  0  0  0
   17.6582   20.2439   27.7431 H   0  0  0  0  0  0  0  0  0  0  0  0
   16.7826   19.5529   26.3629 H   0  0  0  0  0  0  0  0  0  0  0  0
   21.6986   19.2459   19.7486 C   0  0  0  0  0  0  0  0  0  0  0  0
   22.5645   19.8224   20.0814 H   0  0  0  0  0  0  0  0  0  0  0  0
   21.7742   19.0533   18.6761 H   0  0  0  0  0  0  0  0  0  0  0  0
   20.7814   19.8000   19.9579 H   0  0  0  0  0  0  0  0  0  0  0  0
  1  2  1  0  0  0  0
  1  3  1  0  0  0  0
  1  4  1  0  0  0  0
  4  5  1  0  0  0  0
  4  6  1  0  0  0  0
  4  7  1  0  0  0  0
  7  8  1  0  0  0  0
  7  9  1  0  0  0  0
  7 10  1  0  0  0  0
 10 11  1  0  0  0  0
 10 12  1  0  0  0  0
 10 13  1  0  0  0  0
 13 14  1  0  0  0  0
 13 15  1  0  0  0  0
 13 16  1  0  0  0  0
 16 17  1  0  0  0  0
 16 18  1  0  0  0  0
 16 19  1  0  0  0  0
 19 20  1  0  0  0  0
 19 21  1  0  0  0  0
 19 22  1  0  0  0  0
  1 23  1  0  0  0  0
 23 24  1  0  0  0  0
 23 25  1  0  0  0  0
 23 26  1  0  0  0  0
M  END
> <VConfSearch Rank>
63

> <Conf_Id>
37

> <Delta U+W>
0.125

> <U+W>
21.967

> <U>
70.745

> <W>
-48.778

> <W(PB)>
-51.115

> <W(SA)>
2.337

> <Valence>
1.993

> <Coulomb>
68.323

> <VdW>
0.429

> <VdW6>
-5.973

> <VdW12>
6.403

> <Bond>
0.161

> <Angle>
0.472

> <Pdih>
1.360

> <Idih>
0.000

> <Tether>
0.000

$$$$
VeraChem MOL file


 26 25  0  0  0  0  0  0  0  0999 V2000     
   17.1864   18.0670   23.5549 N   0  3  0  0  0  0  0  0  0  0  0  0
   16.5113   18.7795   23.2367 H   0  0  0  0  0  0  0  0  0  0  0  0
   17.1447   18.0903   24.5857 H   0  0  0  0  0  0  0  0  0  0  0  0
   18.5816   18.4194   23.0799 C   0  0  0  0  0  0  0  0  0  0  0  0
   18.5803   18.3939   21.9873 H   0  0  0  0  0  0  0  0  0  0  0  0
   19.2614   17.6448   23.4422 H   0  0  0  0  0  0  0  0  0  0  0  0
   19.0586   19.8020   23.5653 C   0  0  0  0  0  0  0  0  0  0  0  0
   18.3409   20.5643   23.2341 H   0  0  0  0  0  0  0  0  0  0  0  0
   19.0606   19.8282   24.6631 H   0  0  0  0  0  0  0  0  0  0  0  0
   20.4636   20.1726   23.0338 C   0  0  0  0  0  0  0  0  0  0  0  0
   20.6800   21.2076   23.3285 H   0  0  0  0  0  0  0  0  0  0  0  0
   20.4555   20.1567   21.9351 H   0  0  0  0  0  0  0  0  0  0  0  0
   21.5804   19.2368   23.5629 C   0  0  0  0  0  0  0  0  0  0  0  0
   21.6014   19.2688   24.6610 H   0  0  0  0  0  0  0  0  0  0  0  0
   21.3508   18.1988   23.2886 H   0  0  0  0  0  0  0  0  0  0  0  0
   22.9852   19.5803   23.0101 C   0  0  0  0  0  0  0  0  0  0  0  0
   22.9732   19.5387   21.9120 H   0  0  0  0  0  0  0  0  0  0  0  0
   23.6916   18.8050   23.3385 H   0  0  0  0  0  0  0  0  0  0  0  0
   23.5107   20.9585   23.4730 C   0  0  0  0  0  0  0  0  0  0  0  0
   22.9088   21.7790   23.0636 H   0  0  0  0  0  0  0  0  0  0  0  0
   24.5442   21.1084   23.1348 H   0  0  0  0  0  0  0  0  0  0  0  0
   23.5017   21.0375   24.5679 H   0  0  0  0  0  0  0  0  0  0  0  0
   16.7947   16.6905   23.0356 C   0  0  0  0  0  0  0  0  0  0  0  0
   17.5033   15.9495   23.4121 H   0  0  0  0  0  0  0  0  0  0  0  0
   15.7882   16.4490   23.3846 H   0  0  0  0  0  0  0  0  0  0  0  0
   16.8141   16.6998   21.9435 H   0  0  0  0  0  0  0  0  0  0  0  0
  1  2  1  0  0  0  0
  1  3  1  0  0  0  0
  1  4  1  0  0  0  0
  4  5  1  0  0  0  0
  4  6  1  0  0  0  0
  4  7  1  0  0  0  0
  7  8  1  0  0  0  0
  7  9  1  0  0  0  0
  7 10  1  0  0  0  0
 10 11  1  0  0  0  0
 10 12  1  0  0  0  0
 10 13  1  0  0  0  0
 13 14  1  0  0  0  0
 13 15  1  0  0  0  0
 13 16  1  0  0  0  0
 16 17  1  0  0  0  0
 16 18  1  0  0  0  0
 16 19  1  0  0  0  0
 19 20  1  0  0  0  0
 19 21  1  0  0  0  0
 19 22  1  0  0  0  0
  1 23  1  0  0  0  0
 23 24  1  0  0  0  0
 23 25  1  0  0  0  0
 23 26  1  0  0  0  0
M  END
> <VConfSearch Rank>
64

> <Conf_Id>
137

> <Delta U+W>
1.038

> <U+W>
22.880

> <U>
71.810

> <W>
-48.930

> <W(PB)>
-51.257

> <W(SA)>
2.327

> <Valence>
2.568

> <Coulomb>
68.877

> <VdW>
0.364

> <VdW6>
-6.470

> <VdW12>
6.834

> <Bond>
0.191

> <Angle>
0.752

> <Pdih>
1.626

> <Idih>
0.000

> <Tether>
0.000

$$$$
VeraChem MOL file


 26 25  0  0  0  0  0  0  0  0999 V2000     
   17.3678   20.0723   23.9782 N   0  3  0  0  0  0  0  0  0  0  0  0
   17.0737   19.0848   24.0357 H   0  0  0  0  0  0  0  0  0  0  0  0
   17.1352   20.3727   23.0188 H   0  0  0  0  0  0  0  0  0  0  0  0
   18.8602   20.1883   24.2152 C   0  0  0  0  0  0  0  0  0  0  0  0
   19.0647   19.8543   25.2356 H   0  0  0  0  0  0  0  0  0  0  0  0
   19.1306   21.2445   24.1380 H   0  0  0  0  0  0  0  0  0  0  0  0
   19.7005   19.3646   23.2225 C   0  0  0  0  0  0  0  0  0  0  0  0
   19.4069   18.3099   23.2959 H   0  0  0  0  0  0  0  0  0  0  0  0
   19.4797   19.6926   22.1981 H   0  0  0  0  0  0  0  0  0  0  0  0
   21.2139   19.5178   23.5038 C   0  0  0  0  0  0  0  0  0  0  0  0
   21.4434   19.1440   24.5114 H   0  0  0  0  0  0  0  0  0  0  0  0
   21.4695   20.5867   23.5067 H   0  0  0  0  0  0  0  0  0  0  0  0
   22.1136   18.8010   22.4668 C   0  0  0  0  0  0  0  0  0  0  0  0
   21.8969   19.1873   21.4612 H   0  0  0  0  0  0  0  0  0  0  0  0
   23.1606   19.0601   22.6766 H   0  0  0  0  0  0  0  0  0  0  0  0
   21.9657   17.2608   22.4770 C   0  0  0  0  0  0  0  0  0  0  0  0
   20.9444   16.9755   22.1920 H   0  0  0  0  0  0  0  0  0  0  0  0
   22.1315   16.8786   23.4940 H   0  0  0  0  0  0  0  0  0  0  0  0
   22.9617   16.5868   21.5090 C   0  0  0  0  0  0  0  0  0  0  0  0
   22.8011   16.9268   20.4776 H   0  0  0  0  0  0  0  0  0  0  0  0
   22.8413   15.4958   21.5265 H   0  0  0  0  0  0  0  0  0  0  0  0
   23.9990   16.8152   21.7867 H   0  0  0  0  0  0  0  0  0  0  0  0
   16.6142   20.9140   24.9987 C   0  0  0  0  0  0  0  0  0  0  0  0
   16.9171   21.9585   24.8966 H   0  0  0  0  0  0  0  0  0  0  0  0
   15.5411   20.8217   24.8170 H   0  0  0  0  0  0  0  0  0  0  0  0
   16.8502   20.5567   26.0035 H   0  0  0  0  0  0  0  0  0  0  0  0
  1  2  1  0  0  0  0
  1  3  1  0  0  0  0
  1  4  1  0  0  0  0
  4  5  1  0  0  0  0
  4  6  1  0  0  0  0
  4  7  1  0  0  0  0
  7  8  1  0  0  0  0
  7  9  1  0  0  0  0
  7 10  1  0  0  0  0
 10 11  1  0  0  0  0
 10 12  1  0  0  0  0
 10 13  1  0  0  0  0
 13 14  1  0  0  0  0
 13 15  1  0  0  0  0
 13 16  1  0  0  0  0
 16 17  1  0  0  0  0
 16 18  1  0  0  0  0
 16 19  1  0  0  0  0
 19 20  1  0  0  0  0
 19 21  1  0  0  0  0
 19 22  1  0  0  0  0
  1 23  1  0  0  0  0
 23 24  1  0  0  0  0
 23 25  1  0  0  0  0
 23 26  1  0  0  0  0
M  END
> <VConfSearch Rank>
65

> <Conf_Id>
35

> <Delta U+W>
0.670

> <U+W>
22.512

> <U>
71.348

> <W>
-48.837

> <W(PB)>
-51.150

> <W(SA)>
2.313

> <Valence>
2.262

> <Coulomb>
68.807

> <VdW>
0.280

> <VdW6>
-5.915

> <VdW12>
6.195

> <Bond>
0.164

> <Angle>
0.622

> <Pdih>
1.475

> <Idih>
0.000

> <Tether>
0.000

$$$$
VeraChem MOL file


 26 25  0  0  0  0  0  0  0  0999 V2000     
   19.7493   16.0979   23.3044 N   0  3  0  0  0  0  0  0  0  0  0  0
   20.6694   15.9208   23.7367 H   0  0  0  0  0  0  0  0  0  0  0  0
   19.9251   16.1308   22.2881 H   0  0  0  0  0  0  0  0  0  0  0  0
   19.1936   17.4244   23.7824 C   0  0  0  0  0  0  0  0  0  0  0  0
   19.0298   17.3501   24.8605 H   0  0  0  0  0  0  0  0  0  0  0  0
   18.2264   17.5774   23.2970 H   0  0  0  0  0  0  0  0  0  0  0  0
   20.1191   18.6169   23.4801 C   0  0  0  0  0  0  0  0  0  0  0  0
   21.0947   18.4512   23.9562 H   0  0  0  0  0  0  0  0  0  0  0  0
   20.2911   18.6697   22.3977 H   0  0  0  0  0  0  0  0  0  0  0  0
   19.5101   19.9450   23.9887 C   0  0  0  0  0  0  0  0  0  0  0  0
   19.2700   19.8413   25.0561 H   0  0  0  0  0  0  0  0  0  0  0  0
   18.5570   20.1360   23.4762 H   0  0  0  0  0  0  0  0  0  0  0  0
   20.4476   21.1651   23.8129 C   0  0  0  0  0  0  0  0  0  0  0  0
   19.9852   22.0327   24.3038 H   0  0  0  0  0  0  0  0  0  0  0  0
   21.3940   20.9818   24.3402 H   0  0  0  0  0  0  0  0  0  0  0  0
   20.7345   21.5188   22.3341 C   0  0  0  0  0  0  0  0  0  0  0  0
   19.7869   21.6515   21.7935 H   0  0  0  0  0  0  0  0  0  0  0  0
   21.2685   20.6945   21.8432 H   0  0  0  0  0  0  0  0  0  0  0  0
   21.5783   22.8055   22.2098 C   0  0  0  0  0  0  0  0  0  0  0  0
   21.0579   23.6641   22.6538 H   0  0  0  0  0  0  0  0  0  0  0  0
   21.7748   23.0400   21.1555 H   0  0  0  0  0  0  0  0  0  0  0  0
   22.5460   22.6933   22.7158 H   0  0  0  0  0  0  0  0  0  0  0  0
   18.7761   14.9768   23.6418 C   0  0  0  0  0  0  0  0  0  0  0  0
   17.8214   15.1688   23.1471 H   0  0  0  0  0  0  0  0  0  0  0  0
   19.1882   14.0275   23.2924 H   0  0  0  0  0  0  0  0  0  0  0  0
   18.6316   14.9402   24.7238 H   0  0  0  0  0  0  0  0  0  0  0  0
  1  2  1  0  0  0  0
  1  3  1  0  0  0  0
  1  4  1  0  0  0  0
  4  5  1  0  0  0  0
  4  6  1  0  0  0  0
  4  7  1  0  0  0  0
  7  8  1  0  0  0  0
  7  9  1  0  0  0  0
  7 10  1  0  0  0  0
 10 11  1  0  0  0  0
 10 12  1  0  0  0  0
 10 13  1  0  0  0  0
 13 14  1  0  0  0  0
 13 15  1  0  0  0  0
 13 16  1  0  0  0  0
 16 17  1  0  0  0  0
 16 18  1  0  0  0  0
 16 19  1  0  0  0  0
 19 20  1  0  0  0  0
 19 21  1  0  0  0  0
 19 22  1  0  0  0  0
  1 23  1  0  0  0  0
 23 24  1  0  0  0  0
 23 25  1  0  0  0  0
 23 26  1  0  0  0  0
M  END
> <VConfSearch Rank>
66

> <Conf_Id>
36

> <Delta U+W>
0.662

> <U+W>
22.504

> <U>
71.348

> <W>
-48.844

> <W(PB)>
-51.157

> <W(SA)>
2.313

> <Valence>
2.262

> <Coulomb>
68.807

> <VdW>
0.280

> <VdW6>
-5.916

> <VdW12>
6.195

> <Bond>
0.164

> <Angle>
0.622

> <Pdih>
1.475

> <Idih>
0.000

> <Tether>
0.000

$$$$
VeraChem MOL file


 26 25  0  0  0  0  0  0  0  0999 V2000     
   20.7772   22.0514   23.1542 N   0  3  0  0  0  0  0  0  0  0  0  0
   21.6560   22.0079   23.6933 H   0  0  0  0  0  0  0  0  0  0  0  0
   20.1612   22.6872   23.6845 H   0  0  0  0  0  0  0  0  0  0  0  0
   20.1518   20.6742   23.0613 C   0  0  0  0  0  0  0  0  0  0  0  0
   20.8368   20.0352   22.4991 H   0  0  0  0  0  0  0  0  0  0  0  0
   19.2218   20.7658   22.4945 H   0  0  0  0  0  0  0  0  0  0  0  0
   19.8604   20.0438   24.4368 C   0  0  0  0  0  0  0  0  0  0  0  0
   20.7946   19.9534   25.0069 H   0  0  0  0  0  0  0  0  0  0  0  0
   19.2069   20.7162   25.0084 H   0  0  0  0  0  0  0  0  0  0  0  0
   19.1820   18.6578   24.3272 C   0  0  0  0  0  0  0  0  0  0  0  0
   18.2340   18.7562   23.7801 H   0  0  0  0  0  0  0  0  0  0  0  0
   18.9226   18.3119   25.3375 H   0  0  0  0  0  0  0  0  0  0  0  0
   20.0744   17.5965   23.6394 C   0  0  0  0  0  0  0  0  0  0  0  0
   20.3012   17.9060   22.6104 H   0  0  0  0  0  0  0  0  0  0  0  0
   21.0345   17.5247   24.1692 H   0  0  0  0  0  0  0  0  0  0  0  0
   19.3977   16.2078   23.6124 C   0  0  0  0  0  0  0  0  0  0  0  0
   18.4361   16.2738   23.0842 H   0  0  0  0  0  0  0  0  0  0  0  0
   19.1737   15.8835   24.6384 H   0  0  0  0  0  0  0  0  0  0  0  0
   20.2878   15.1505   22.9249 C   0  0  0  0  0  0  0  0  0  0  0  0
   20.5007   15.4294   21.8846 H   0  0  0  0  0  0  0  0  0  0  0  0
   19.7908   14.1718   22.9160 H   0  0  0  0  0  0  0  0  0  0  0  0
   21.2447   15.0373   23.4510 H   0  0  0  0  0  0  0  0  0  0  0  0
   21.0343   22.5989   21.7571 C   0  0  0  0  0  0  0  0  0  0  0  0
   20.0868   22.6669   21.2180 H   0  0  0  0  0  0  0  0  0  0  0  0
   21.4844   23.5909   21.8383 H   0  0  0  0  0  0  0  0  0  0  0  0
   21.7141   21.9277   21.2277 H   0  0  0  0  0  0  0  0  0  0  0  0
  1  2  1  0  0  0  0
  1  3  1  0  0  0  0
  1  4  1  0  0  0  0
  4  5  1  0  0  0  0
  4  6  1  0  0  0  0
  4  7  1  0  0  0  0
  7  8  1  0  0  0  0
  7  9  1  0  0  0  0
  7 10  1  0  0  0  0
 10 11  1  0  0  0  0
 10 12  1  0  0  0  0
 10 13  1  0  0  0  0
 13 14  1  0  0  0  0
 13 15  1  0  0  0  0
 13 16  1  0  0  0  0
 16 17  1  0  0  0  0
 16 18  1  0  0  0  0
 16 19  1  0  0  0  0
 19 20  1  0  0  0  0
 19 21  1  0  0  0  0
 19 22  1  0  0  0  0
  1 23  1  0  0  0  0
 23 24  1  0  0  0  0
 23 25  1  0  0  0  0
 23 26  1  0  0  0  0
M  END
> <VConfSearch Rank>
67

> <Conf_Id>
46

> <Delta U+W>
0.496

> <U+W>
22.338

> <U>
71.138

> <W>
-48.799

> <W(PB)>
-51.136

> <W(SA)>
2.337

> <Valence>
2.016

> <Coulomb>
68.932

> <VdW>
0.190

> <VdW6>
-5.902

> <VdW12>
6.092

> <Bond>
0.149

> <Angle>
0.477

> <Pdih>
1.390

> <Idih>
0.000

> <Tether>
0.000

$$$$
VeraChem MOL file


 26 25  0  0  0  0  0  0  0  0999 V2000     
   21.8686   16.8866   24.0996 N   0  3  0  0  0  0  0  0  0  0  0  0
   22.1000   16.8192   25.1030 H   0  0  0  0  0  0  0  0  0  0  0  0
   22.7085   17.2833   23.6503 H   0  0  0  0  0  0  0  0  0  0  0  0
   20.6826   17.8080   23.8973 C   0  0  0  0  0  0  0  0  0  0  0  0
   19.8199   17.3586   24.3955 H   0  0  0  0  0  0  0  0  0  0  0  0
   20.4764   17.8542   22.8254 H   0  0  0  0  0  0  0  0  0  0  0  0
   20.9152   19.2291   24.4455 C   0  0  0  0  0  0  0  0  0  0  0  0
   21.1646   19.1656   25.5131 H   0  0  0  0  0  0  0  0  0  0  0  0
   21.7831   19.6801   23.9462 H   0  0  0  0  0  0  0  0  0  0  0  0
   19.6813   20.1460   24.2720 C   0  0  0  0  0  0  0  0  0  0  0  0
   19.8850   21.1074   24.7637 H   0  0  0  0  0  0  0  0  0  0  0  0
   18.8213   19.7058   24.7959 H   0  0  0  0  0  0  0  0  0  0  0  0
   19.3158   20.3999   22.7895 C   0  0  0  0  0  0  0  0  0  0  0  0
   20.1880   20.8088   22.2610 H   0  0  0  0  0  0  0  0  0  0  0  0
   19.0614   19.4515   22.2975 H   0  0  0  0  0  0  0  0  0  0  0  0
   18.1267   21.3766   22.6506 C   0  0  0  0  0  0  0  0  0  0  0  0
   18.3734   22.3332   23.1324 H   0  0  0  0  0  0  0  0  0  0  0  0
   17.2512   20.9728   23.1784 H   0  0  0  0  0  0  0  0  0  0  0  0
   17.7620   21.6278   21.1719 C   0  0  0  0  0  0  0  0  0  0  0  0
   18.6082   22.0637   20.6249 H   0  0  0  0  0  0  0  0  0  0  0  0
   16.9165   22.3236   21.0939 H   0  0  0  0  0  0  0  0  0  0  0  0
   17.4762   20.6935   20.6712 H   0  0  0  0  0  0  0  0  0  0  0  0
   21.5578   15.5096   23.5294 C   0  0  0  0  0  0  0  0  0  0  0  0
   22.4197   14.8560   23.6818 H   0  0  0  0  0  0  0  0  0  0  0  0
   20.6865   15.0967   24.0426 H   0  0  0  0  0  0  0  0  0  0  0  0
   21.3491   15.6018   22.4613 H   0  0  0  0  0  0  0  0  0  0  0  0
  1  2  1  0  0  0  0
  1  3  1  0  0  0  0
  1  4  1  0  0  0  0
  4  5  1  0  0  0  0
  4  6  1  0  0  0  0
  4  7  1  0  0  0  0
  7  8  1  0  0  0  0
  7  9  1  0  0  0  0
  7 10  1  0  0  0  0
 10 11  1  0  0  0  0
 10 12  1  0  0  0  0
 10 13  1  0  0  0  0
 13 14  1  0  0  0  0
 13 15  1  0  0  0  0
 13 16  1  0  0  0  0
 16 17  1  0  0  0  0
 16 18  1  0  0  0  0
 16 19  1  0  0  0  0
 19 20  1  0  0  0  0
 19 21  1  0  0  0  0
 19 22  1  0  0  0  0
  1 23  1  0  0  0  0
 23 24  1  0  0  0  0
 23 25  1  0  0  0  0
 23 26  1  0  0  0  0
M  END
> <VConfSearch Rank>
68

> <Conf_Id>
45

> <Delta U+W>
0.471

> <U+W>
22.313

> <U>
71.138

> <W>
-48.825

> <W(PB)>
-51.169

> <W(SA)>
2.344

> <Valence>
2.016

> <Coulomb>
68.932

> <VdW>
0.190

> <VdW6>
-5.902

> <VdW12>
6.092

> <Bond>
0.149

> <Angle>
0.477

> <Pdih>
1.390

> <Idih>
0.000

> <Tether>
0.000

$$$$
VeraChem MOL file


 26 25  0  0  0  0  0  0  0  0999 V2000     
   17.4918   19.2575   23.4686 N   0  3  0  0  0  0  0  0  0  0  0  0
   17.7988   18.4282   23.9990 H   0  0  0  0  0  0  0  0  0  0  0  0
   17.4713   18.9618   22.4803 H   0  0  0  0  0  0  0  0  0  0  0  0
   18.4831   20.3901   23.6539 C   0  0  0  0  0  0  0  0  0  0  0  0
   18.4834   20.6685   24.7108 H   0  0  0  0  0  0  0  0  0  0  0  0
   18.1201   21.2440   23.0763 H   0  0  0  0  0  0  0  0  0  0  0  0
   19.9174   20.0439   23.2083 C   0  0  0  0  0  0  0  0  0  0  0  0
   19.9062   19.7679   22.1463 H   0  0  0  0  0  0  0  0  0  0  0  0
   20.5345   20.9483   23.2922 H   0  0  0  0  0  0  0  0  0  0  0  0
   20.5473   18.9115   24.0576 C   0  0  0  0  0  0  0  0  0  0  0  0
   19.9912   17.9758   23.9119 H   0  0  0  0  0  0  0  0  0  0  0  0
   20.4494   19.1674   25.1219 H   0  0  0  0  0  0  0  0  0  0  0  0
   22.0450   18.6683   23.7476 C   0  0  0  0  0  0  0  0  0  0  0  0
   22.6114   19.5949   23.9148 H   0  0  0  0  0  0  0  0  0  0  0  0
   22.4351   17.9354   24.4673 H   0  0  0  0  0  0  0  0  0  0  0  0
   22.3037   18.1505   22.3126 C   0  0  0  0  0  0  0  0  0  0  0  0
   21.9901   18.9019   21.5758 H   0  0  0  0  0  0  0  0  0  0  0  0
   21.6995   17.2513   22.1277 H   0  0  0  0  0  0  0  0  0  0  0  0
   23.7945   17.8199   22.0868 C   0  0  0  0  0  0  0  0  0  0  0  0
   24.4226   18.7080   22.2352 H   0  0  0  0  0  0  0  0  0  0  0  0
   23.9606   17.4571   21.0641 H   0  0  0  0  0  0  0  0  0  0  0  0
   24.1360   17.0400   22.7798 H   0  0  0  0  0  0  0  0  0  0  0  0
   16.1080   19.6998   23.9235 C   0  0  0  0  0  0  0  0  0  0  0  0
   15.7915   20.5584   23.3272 H   0  0  0  0  0  0  0  0  0  0  0  0
   15.4049   18.8754   23.7853 H   0  0  0  0  0  0  0  0  0  0  0  0
   16.1486   19.9771   24.9791 H   0  0  0  0  0  0  0  0  0  0  0  0
  1  2  1  0  0  0  0
  1  3  1  0  0  0  0
  1  4  1  0  0  0  0
  4  5  1  0  0  0  0
  4  6  1  0  0  0  0
  4  7  1  0  0  0  0
  7  8  1  0  0  0  0
  7  9  1  0  0  0  0
  7 10  1  0  0  0  0
 10 11  1  0  0  0  0
 10 12  1  0  0  0  0
 10 13  1  0  0  0  0
 13 14  1  0  0  0  0
 13 15  1  0  0  0  0
 13 16  1  0  0  0  0
 16 17  1  0  0  0  0
 16 18  1  0  0  0  0
 16 19  1  0  0  0  0
 19 20  1  0  0  0  0
 19 21  1  0  0  0  0
 19 22  1  0  0  0  0
  1 23  1  0  0  0  0
 23 24  1  0  0  0  0
 23 25  1  0  0  0  0
 23 26  1  0  0  0  0
M  END
> <VConfSearch Rank>
69

> <Conf_Id>
143

> <Delta U+W>
0.915

> <U+W>
22.757

> <U>
71.994

> <W>
-49.237

> <W(PB)>
-51.537

> <W(SA)>
2.300

> <Valence>
2.376

> <Coulomb>
69.315

> <VdW>
0.303

> <VdW6>
-6.508

> <VdW12>
6.810

> <Bond>
0.182

> <Angle>
0.660

> <Pdih>
1.534

> <Idih>
0.000

> <Tether>
0.000

$$$$
VeraChem MOL file


 26 25  0  0  0  0  0  0  0  0999 V2000     
   17.5292   19.8107   23.1146 N   0  3  0  0  0  0  0  0  0  0  0  0
   17.9284   20.2774   22.2864 H   0  0  0  0  0  0  0  0  0  0  0  0
   17.6228   20.4893   23.8862 H   0  0  0  0  0  0  0  0  0  0  0  0
   18.3108   18.5500   23.4308 C   0  0  0  0  0  0  0  0  0  0  0  0
   18.1968   17.8614   22.5898 H   0  0  0  0  0  0  0  0  0  0  0  0
   17.8523   18.0921   24.3110 H   0  0  0  0  0  0  0  0  0  0  0  0
   19.8086   18.7918   23.7043 C   0  0  0  0  0  0  0  0  0  0  0  0
   19.9207   19.5071   24.5298 H   0  0  0  0  0  0  0  0  0  0  0  0
   20.2444   17.8433   24.0412 H   0  0  0  0  0  0  0  0  0  0  0  0
   20.5720   19.2935   22.4543 C   0  0  0  0  0  0  0  0  0  0  0  0
   20.0725   20.1852   22.0535 H   0  0  0  0  0  0  0  0  0  0  0  0
   20.5167   18.5318   21.6643 H   0  0  0  0  0  0  0  0  0  0  0  0
   22.0570   19.6570   22.7151 C   0  0  0  0  0  0  0  0  0  0  0  0
   22.4740   20.0374   21.7723 H   0  0  0  0  0  0  0  0  0  0  0  0
   22.1222   20.4934   23.4247 H   0  0  0  0  0  0  0  0  0  0  0  0
   22.9439   18.4780   23.1928 C   0  0  0  0  0  0  0  0  0  0  0  0
   23.9453   18.5936   22.7548 H   0  0  0  0  0  0  0  0  0  0  0  0
   22.5547   17.5255   22.8068 H   0  0  0  0  0  0  0  0  0  0  0  0
   23.1021   18.4118   24.7301 C   0  0  0  0  0  0  0  0  0  0  0  0
   22.1417   18.2753   25.2391 H   0  0  0  0  0  0  0  0  0  0  0  0
   23.5608   19.3312   25.1164 H   0  0  0  0  0  0  0  0  0  0  0  0
   23.7505   17.5727   25.0135 H   0  0  0  0  0  0  0  0  0  0  0  0
   16.0649   19.4673   22.8792 C   0  0  0  0  0  0  0  0  0  0  0  0
   15.6555   19.0039   23.7796 H   0  0  0  0  0  0  0  0  0  0  0  0
   15.5141   20.3829   22.6525 H   0  0  0  0  0  0  0  0  0  0  0  0
   15.9893   18.7736   22.0389 H   0  0  0  0  0  0  0  0  0  0  0  0
  1  2  1  0  0  0  0
  1  3  1  0  0  0  0
  1  4  1  0  0  0  0
  4  5  1  0  0  0  0
  4  6  1  0  0  0  0
  4  7  1  0  0  0  0
  7  8  1  0  0  0  0
  7  9  1  0  0  0  0
  7 10  1  0  0  0  0
 10 11  1  0  0  0  0
 10 12  1  0  0  0  0
 10 13  1  0  0  0  0
 13 14  1  0  0  0  0
 13 15  1  0  0  0  0
 13 16  1  0  0  0  0
 16 17  1  0  0  0  0
 16 18  1  0  0  0  0
 16 19  1  0  0  0  0
 19 20  1  0  0  0  0
 19 21  1  0  0  0  0
 19 22  1  0  0  0  0
  1 23  1  0  0  0  0
 23 24  1  0  0  0  0
 23 25  1  0  0  0  0
 23 26  1  0  0  0  0
M  END
> <VConfSearch Rank>
70

> <Conf_Id>
76

> <Delta U+W>
3.468

> <U+W>
25.310

> <U>
74.594

> <W>
-49.283

> <W(PB)>
-51.537

> <W(SA)>
2.253

> <Valence>
4.886

> <Coulomb>
69.332

> <VdW>
0.376

> <VdW6>
-7.329

> <VdW12>
7.705

> <Bond>
0.232

> <Angle>
1.251

> <Pdih>
3.403

> <Idih>
0.000

> <Tether>
0.000

$$$$
VeraChem MOL file


 26 25  0  0  0  0  0  0  0  0999 V2000     
   20.4093   21.5921   24.4217 N   0  3  0  0  0  0  0  0  0  0  0  0
   19.4935   21.7785   23.9843 H   0  0  0  0  0  0  0  0  0  0  0  0
   21.1069   22.0135   23.7888 H   0  0  0  0  0  0  0  0  0  0  0  0
   20.6409   20.0986   24.5350 C   0  0  0  0  0  0  0  0  0  0  0  0
   19.8799   19.6913   25.2054 H   0  0  0  0  0  0  0  0  0  0  0  0
   21.6212   19.9453   24.9933 H   0  0  0  0  0  0  0  0  0  0  0  0
   20.5823   19.3686   23.1810 C   0  0  0  0  0  0  0  0  0  0  0  0
   19.6061   19.5486   22.7170 H   0  0  0  0  0  0  0  0  0  0  0  0
   21.3376   19.7939   22.5069 H   0  0  0  0  0  0  0  0  0  0  0  0
   20.8351   17.8509   23.3484 C   0  0  0  0  0  0  0  0  0  0  0  0
   20.1231   17.4206   24.0662 H   0  0  0  0  0  0  0  0  0  0  0  0
   21.8313   17.7183   23.7933 H   0  0  0  0  0  0  0  0  0  0  0  0
   20.7859   17.0638   22.0125 C   0  0  0  0  0  0  0  0  0  0  0  0
   21.1055   17.7050   21.1795 H   0  0  0  0  0  0  0  0  0  0  0  0
   21.5284   16.2555   22.0644 H   0  0  0  0  0  0  0  0  0  0  0  0
   19.4147   16.4159   21.6905 C   0  0  0  0  0  0  0  0  0  0  0  0
   19.1528   15.6964   22.4789 H   0  0  0  0  0  0  0  0  0  0  0  0
   19.5153   15.8297   20.7663 H   0  0  0  0  0  0  0  0  0  0  0  0
   18.2585   17.4243   21.5130 C   0  0  0  0  0  0  0  0  0  0  0  0
   18.5160   18.1979   20.7781 H   0  0  0  0  0  0  0  0  0  0  0  0
   18.0059   17.9124   22.4623 H   0  0  0  0  0  0  0  0  0  0  0  0
   17.3546   16.9124   21.1583 H   0  0  0  0  0  0  0  0  0  0  0  0
   20.4828   22.2337   25.8004 C   0  0  0  0  0  0  0  0  0  0  0  0
   19.7148   21.7958   26.4418 H   0  0  0  0  0  0  0  0  0  0  0  0
   21.4709   22.0517   26.2289 H   0  0  0  0  0  0  0  0  0  0  0  0
   20.3146   23.3087   25.7047 H   0  0  0  0  0  0  0  0  0  0  0  0
  1  2  1  0  0  0  0
  1  3  1  0  0  0  0
  1  4  1  0  0  0  0
  4  5  1  0  0  0  0
  4  6  1  0  0  0  0
  4  7  1  0  0  0  0
  7  8  1  0  0  0  0
  7  9  1  0  0  0  0
  7 10  1  0  0  0  0
 10 11  1  0  0  0  0
 10 12  1  0  0  0  0
 10 13  1  0  0  0  0
 13 14  1  0  0  0  0
 13 15  1  0  0  0  0
 13 16  1  0  0  0  0
 16 17  1  0  0  0  0
 16 18  1  0  0  0  0
 16 19  1  0  0  0  0
 19 20  1  0  0  0  0
 19 21  1  0  0  0  0
 19 22  1  0  0  0  0
  1 23  1  0  0  0  0
 23 24  1  0  0  0  0
 23 25  1  0  0  0  0
 23 26  1  0  0  0  0
M  END
> <VConfSearch Rank>
71

> <Conf_Id>
123

> <Delta U+W>
3.101

> <U+W>
24.943

> <U>
74.070

> <W>
-49.127

> <W(PB)>
-51.421

> <W(SA)>
2.295

> <Valence>
4.690

> <Coulomb>
69.115

> <VdW>
0.266

> <VdW6>
-6.809

> <VdW12>
7.075

> <Bond>
0.212

> <Angle>
1.133

> <Pdih>
3.345

> <Idih>
0.000

> <Tether>
0.000

$$$$
VeraChem MOL file


 26 25  0  0  0  0  0  0  0  0999 V2000     
   22.6460   19.0915   22.6624 N   0  3  0  0  0  0  0  0  0  0  0  0
   23.0338   19.8661   23.2230 H   0  0  0  0  0  0  0  0  0  0  0  0
   22.1807   19.5383   21.8580 H   0  0  0  0  0  0  0  0  0  0  0  0
   21.6359   18.3102   23.4804 C   0  0  0  0  0  0  0  0  0  0  0  0
   22.1714   17.8555   24.3177 H   0  0  0  0  0  0  0  0  0  0  0  0
   21.2411   17.5080   22.8519 H   0  0  0  0  0  0  0  0  0  0  0  0
   20.4726   19.1644   24.0219 C   0  0  0  0  0  0  0  0  0  0  0  0
   19.8665   18.5363   24.6842 H   0  0  0  0  0  0  0  0  0  0  0  0
   20.8743   19.9724   24.6477 H   0  0  0  0  0  0  0  0  0  0  0  0
   19.5927   19.7597   22.8930 C   0  0  0  0  0  0  0  0  0  0  0  0
   19.2654   18.9677   22.2051 H   0  0  0  0  0  0  0  0  0  0  0  0
   20.2074   20.4465   22.2961 H   0  0  0  0  0  0  0  0  0  0  0  0
   18.3641   20.5461   23.4206 C   0  0  0  0  0  0  0  0  0  0  0  0
   18.5839   20.9827   24.4045 H   0  0  0  0  0  0  0  0  0  0  0  0
   18.1907   21.3999   22.7509 H   0  0  0  0  0  0  0  0  0  0  0  0
   17.0484   19.7282   23.4819 C   0  0  0  0  0  0  0  0  0  0  0  0
   16.7824   19.3822   22.4733 H   0  0  0  0  0  0  0  0  0  0  0  0
   16.2361   20.3982   23.7968 H   0  0  0  0  0  0  0  0  0  0  0  0
   17.0934   18.5196   24.4424 C   0  0  0  0  0  0  0  0  0  0  0  0
   17.4129   18.8236   25.4476 H   0  0  0  0  0  0  0  0  0  0  0  0
   17.7778   17.7444   24.0765 H   0  0  0  0  0  0  0  0  0  0  0  0
   16.0991   18.0629   24.5306 H   0  0  0  0  0  0  0  0  0  0  0  0
   23.7574   18.1652   22.1889 C   0  0  0  0  0  0  0  0  0  0  0  0
   23.3266   17.3731   21.5725 H   0  0  0  0  0  0  0  0  0  0  0  0
   24.4769   18.7399   21.6014 H   0  0  0  0  0  0  0  0  0  0  0  0
   24.2554   17.7287   23.0575 H   0  0  0  0  0  0  0  0  0  0  0  0
  1  2  1  0  0  0  0
  1  3  1  0  0  0  0
  1  4  1  0  0  0  0
  4  5  1  0  0  0  0
  4  6  1  0  0  0  0
  4  7  1  0  0  0  0
  7  8  1  0  0  0  0
  7  9  1  0  0  0  0
  7 10  1  0  0  0  0
 10 11  1  0  0  0  0
 10 12  1  0  0  0  0
 10 13  1  0  0  0  0
 13 14  1  0  0  0  0
 13 15  1  0  0  0  0
 13 16  1  0  0  0  0
 16 17  1  0  0  0  0
 16 18  1  0  0  0  0
 16 19  1  0  0  0  0
 19 20  1  0  0  0  0
 19 21  1  0  0  0  0
 19 22  1  0  0  0  0
  1 23  1  0  0  0  0
 23 24  1  0  0  0  0
 23 25  1  0  0  0  0
 23 26  1  0  0  0  0
M  END
> <VConfSearch Rank>
72

> <Conf_Id>
111

> <Delta U+W>
3.383

> <U+W>
25.225

> <U>
74.516

> <W>
-49.292

> <W(PB)>
-51.558

> <W(SA)>
2.266

> <Valence>
4.842

> <Coulomb>
69.333

> <VdW>
0.342

> <VdW6>
-7.369

> <VdW12>
7.711

> <Bond>
0.232

> <Angle>
1.153

> <Pdih>
3.457

> <Idih>
0.000

> <Tether>
0.000

$$$$
VeraChem MOL file


 26 25  0  0  0  0  0  0  0  0999 V2000     
   20.5377   20.4956   25.1751 N   0  3  0  0  0  0  0  0  0  0  0  0
   21.5362   20.7248   25.2980 H   0  0  0  0  0  0  0  0  0  0  0  0
   20.4832   19.4666   25.2109 H   0  0  0  0  0  0  0  0  0  0  0  0
   20.0504   20.9932   23.8284 C   0  0  0  0  0  0  0  0  0  0  0  0
   20.1352   22.0829   23.8277 H   0  0  0  0  0  0  0  0  0  0  0  0
   18.9926   20.7359   23.7371 H   0  0  0  0  0  0  0  0  0  0  0  0
   20.8334   20.4182   22.6298 C   0  0  0  0  0  0  0  0  0  0  0  0
   20.4437   20.8681   21.7069 H   0  0  0  0  0  0  0  0  0  0  0  0
   21.8828   20.7330   22.7031 H   0  0  0  0  0  0  0  0  0  0  0  0
   20.7697   18.8741   22.5112 C   0  0  0  0  0  0  0  0  0  0  0  0
   21.2365   18.4113   23.3907 H   0  0  0  0  0  0  0  0  0  0  0  0
   21.3797   18.5744   21.6493 H   0  0  0  0  0  0  0  0  0  0  0  0
   19.3270   18.3341   22.3380 C   0  0  0  0  0  0  0  0  0  0  0  0
   18.7095   18.6531   23.1879 H   0  0  0  0  0  0  0  0  0  0  0  0
   18.8711   18.7768   21.4417 H   0  0  0  0  0  0  0  0  0  0  0  0
   19.2540   16.7904   22.2449 C   0  0  0  0  0  0  0  0  0  0  0  0
   18.1974   16.4881   22.2411 H   0  0  0  0  0  0  0  0  0  0  0  0
   19.6979   16.3417   23.1445 H   0  0  0  0  0  0  0  0  0  0  0  0
   19.9389   16.2149   20.9842 C   0  0  0  0  0  0  0  0  0  0  0  0
   21.0231   16.3804   21.0018 H   0  0  0  0  0  0  0  0  0  0  0  0
   19.5353   16.6722   20.0715 H   0  0  0  0  0  0  0  0  0  0  0  0
   19.7728   15.1318   20.9179 H   0  0  0  0  0  0  0  0  0  0  0  0
   19.7050   21.1142   26.2892 C   0  0  0  0  0  0  0  0  0  0  0  0
   20.0657   20.7467   27.2524 H   0  0  0  0  0  0  0  0  0  0  0  0
   19.8028   22.2013   26.2491 H   0  0  0  0  0  0  0  0  0  0  0  0
   18.6586   20.8315   26.1548 H   0  0  0  0  0  0  0  0  0  0  0  0
  1  2  1  0  0  0  0
  1  3  1  0  0  0  0
  1  4  1  0  0  0  0
  4  5  1  0  0  0  0
  4  6  1  0  0  0  0
  4  7  1  0  0  0  0
  7  8  1  0  0  0  0
  7  9  1  0  0  0  0
  7 10  1  0  0  0  0
 10 11  1  0  0  0  0
 10 12  1  0  0  0  0
 10 13  1  0  0  0  0
 13 14  1  0  0  0  0
 13 15  1  0  0  0  0
 13 16  1  0  0  0  0
 16 17  1  0  0  0  0
 16 18  1  0  0  0  0
 16 19  1  0  0  0  0
 19 20  1  0  0  0  0
 19 21  1  0  0  0  0
 19 22  1  0  0  0  0
  1 23  1  0  0  0  0
 23 24  1  0  0  0  0
 23 25  1  0  0  0  0
 23 26  1  0  0  0  0
M  END
> <VConfSearch Rank>
73

> <Conf_Id>
126

> <Delta U+W>
1.519

> <U+W>
23.361

> <U>
72.579

> <W>
-49.218

> <W(PB)>
-51.496

> <W(SA)>
2.279

> <Valence>
2.678

> <Coulomb>
69.622

> <VdW>
0.279

> <VdW6>
-7.328

> <VdW12>
7.608

> <Bond>
0.212

> <Angle>
0.911

> <Pdih>
1.555

> <Idih>
0.000

> <Tether>
0.000

$$$$
VeraChem MOL file


 26 25  0  0  0  0  0  0  0  0999 V2000     
   19.3148   19.2003   20.9981 N   0  3  0  0  0  0  0  0  0  0  0  0
   18.7538   18.8154   21.7728 H   0  0  0  0  0  0  0  0  0  0  0  0
   19.5825   18.3888   20.4198 H   0  0  0  0  0  0  0  0  0  0  0  0
   20.5536   19.8820   21.5451 C   0  0  0  0  0  0  0  0  0  0  0  0
   20.2307   20.7348   22.1468 H   0  0  0  0  0  0  0  0  0  0  0  0
   21.1240   20.2643   20.6947 H   0  0  0  0  0  0  0  0  0  0  0  0
   21.4535   18.9569   22.3905 C   0  0  0  0  0  0  0  0  0  0  0  0
   21.8182   18.1364   21.7583 H   0  0  0  0  0  0  0  0  0  0  0  0
   22.3430   19.5205   22.7020 H   0  0  0  0  0  0  0  0  0  0  0  0
   20.7585   18.3668   23.6438 C   0  0  0  0  0  0  0  0  0  0  0  0
   21.4748   17.7067   24.1500 H   0  0  0  0  0  0  0  0  0  0  0  0
   19.9178   17.7288   23.3406 H   0  0  0  0  0  0  0  0  0  0  0  0
   20.2632   19.4511   24.6348 C   0  0  0  0  0  0  0  0  0  0  0  0
   21.1105   20.0709   24.9592 H   0  0  0  0  0  0  0  0  0  0  0  0
   19.5649   20.1264   24.1233 H   0  0  0  0  0  0  0  0  0  0  0  0
   19.5448   18.8690   25.8765 C   0  0  0  0  0  0  0  0  0  0  0  0
   18.6886   18.2576   25.5587 H   0  0  0  0  0  0  0  0  0  0  0  0
   19.1274   19.6997   26.4627 H   0  0  0  0  0  0  0  0  0  0  0  0
   20.4704   18.0333   26.7900 C   0  0  0  0  0  0  0  0  0  0  0  0
   21.3519   18.6120   27.0950 H   0  0  0  0  0  0  0  0  0  0  0  0
   20.8143   17.1196   26.2899 H   0  0  0  0  0  0  0  0  0  0  0  0
   19.9380   17.7291   27.7005 H   0  0  0  0  0  0  0  0  0  0  0  0
   18.4940   20.1908   20.1842 C   0  0  0  0  0  0  0  0  0  0  0  0
   18.1967   21.0234   20.8255 H   0  0  0  0  0  0  0  0  0  0  0  0
   19.0989   20.5610   19.3535 H   0  0  0  0  0  0  0  0  0  0  0  0
   17.6052   19.6872   19.7975 H   0  0  0  0  0  0  0  0  0  0  0  0
  1  2  1  0  0  0  0
  1  3  1  0  0  0  0
  1  4  1  0  0  0  0
  4  5  1  0  0  0  0
  4  6  1  0  0  0  0
  4  7  1  0  0  0  0
  7  8  1  0  0  0  0
  7  9  1  0  0  0  0
  7 10  1  0  0  0  0
 10 11  1  0  0  0  0
 10 12  1  0  0  0  0
 10 13  1  0  0  0  0
 13 14  1  0  0  0  0
 13 15  1  0  0  0  0
 13 16  1  0  0  0  0
 16 17  1  0  0  0  0
 16 18  1  0  0  0  0
 16 19  1  0  0  0  0
 19 20  1  0  0  0  0
 19 21  1  0  0  0  0
 19 22  1  0  0  0  0
  1 23  1  0  0  0  0
 23 24  1  0  0  0  0
 23 25  1  0  0  0  0
 23 26  1  0  0  0  0
M  END
> <VConfSearch Rank>
74

> <Conf_Id>
134

> <Delta U+W>
1.464

> <U+W>
23.306

> <U>
72.579

> <W>
-49.273

> <W(PB)>
-51.540

> <W(SA)>
2.267

> <Valence>
2.677

> <Coulomb>
69.622

> <VdW>
0.280

> <VdW6>
-7.328

> <VdW12>
7.608

> <Bond>
0.212

> <Angle>
0.911

> <Pdih>
1.555

> <Idih>
0.000

> <Tether>
0.000

$$$$
VeraChem MOL file


 26 25  0  0  0  0  0  0  0  0999 V2000     
   18.2938   21.2017   23.2214 N   0  3  0  0  0  0  0  0  0  0  0  0
   18.7090   21.4958   24.1191 H   0  0  0  0  0  0  0  0  0  0  0  0
   17.4159   20.7195   23.4697 H   0  0  0  0  0  0  0  0  0  0  0  0
   19.2270   20.2500   22.5002 C   0  0  0  0  0  0  0  0  0  0  0  0
   20.1441   20.7951   22.2630 H   0  0  0  0  0  0  0  0  0  0  0  0
   18.7481   19.9573   21.5624 H   0  0  0  0  0  0  0  0  0  0  0  0
   19.5692   18.9936   23.3212 C   0  0  0  0  0  0  0  0  0  0  0  0
   20.0323   19.3003   24.2675 H   0  0  0  0  0  0  0  0  0  0  0  0
   18.6441   18.4573   23.5710 H   0  0  0  0  0  0  0  0  0  0  0  0
   20.5216   18.0550   22.5437 C   0  0  0  0  0  0  0  0  0  0  0  0
   21.4630   18.5774   22.3272 H   0  0  0  0  0  0  0  0  0  0  0  0
   20.0745   17.8229   21.5671 H   0  0  0  0  0  0  0  0  0  0  0  0
   20.8129   16.7198   23.2769 C   0  0  0  0  0  0  0  0  0  0  0  0
   19.8743   16.1589   23.3841 H   0  0  0  0  0  0  0  0  0  0  0  0
   21.4601   16.1019   22.6392 H   0  0  0  0  0  0  0  0  0  0  0  0
   21.4727   16.8603   24.6727 C   0  0  0  0  0  0  0  0  0  0  0  0
   21.6276   15.8549   25.0886 H   0  0  0  0  0  0  0  0  0  0  0  0
   20.7900   17.3690   25.3664 H   0  0  0  0  0  0  0  0  0  0  0  0
   22.8299   17.5993   24.6402 C   0  0  0  0  0  0  0  0  0  0  0  0
   23.5239   17.1193   23.9381 H   0  0  0  0  0  0  0  0  0  0  0  0
   23.2969   17.5895   25.6335 H   0  0  0  0  0  0  0  0  0  0  0  0
   22.7099   18.6483   24.3425 H   0  0  0  0  0  0  0  0  0  0  0  0
   18.0082   22.4121   22.3432 C   0  0  0  0  0  0  0  0  0  0  0  0
   17.5394   22.0794   21.4144 H   0  0  0  0  0  0  0  0  0  0  0  0
   17.3351   23.0891   22.8741 H   0  0  0  0  0  0  0  0  0  0  0  0
   18.9469   22.9243   22.1212 H   0  0  0  0  0  0  0  0  0  0  0  0
  1  2  1  0  0  0  0
  1  3  1  0  0  0  0
  1  4  1  0  0  0  0
  4  5  1  0  0  0  0
  4  6  1  0  0  0  0
  4  7  1  0  0  0  0
  7  8  1  0  0  0  0
  7  9  1  0  0  0  0
  7 10  1  0  0  0  0
 10 11  1  0  0  0  0
 10 12  1  0  0  0  0
 10 13  1  0  0  0  0
 13 14  1  0  0  0  0
 13 15  1  0  0  0  0
 13 16  1  0  0  0  0
 16 17  1  0  0  0  0
 16 18  1  0  0  0  0
 16 19  1  0  0  0  0
 19 20  1  0  0  0  0
 19 21  1  0  0  0  0
 19 22  1  0  0  0  0
  1 23  1  0  0  0  0
 23 24  1  0  0  0  0
 23 25  1  0  0  0  0
 23 26  1  0  0  0  0
M  END
> <VConfSearch Rank>
75

> <Conf_Id>
30

> <Delta U+W>
0.910

> <U+W>
22.752

> <U>
71.870

> <W>
-49.118

> <W(PB)>
-51.409

> <W(SA)>
2.290

> <Valence>
2.682

> <Coulomb>
68.933

> <VdW>
0.255

> <VdW6>
-6.833

> <VdW12>
7.088

> <Bond>
0.205

> <Angle>
1.003

> <Pdih>
1.473

> <Idih>
0.000

> <Tether>
0.000

$$$$
VeraChem MOL file


 26 25  0  0  0  0  0  0  0  0999 V2000     
   17.9497   20.9579   22.9555 N   0  3  0  0  0  0  0  0  0  0  0  0
   17.8140   21.2922   23.9223 H   0  0  0  0  0  0  0  0  0  0  0  0
   17.3231   20.1442   22.8557 H   0  0  0  0  0  0  0  0  0  0  0  0
   19.3905   20.5377   22.7450 C   0  0  0  0  0  0  0  0  0  0  0  0
   20.0192   21.4233   22.8672 H   0  0  0  0  0  0  0  0  0  0  0  0
   19.4898   20.1842   21.7157 H   0  0  0  0  0  0  0  0  0  0  0  0
   19.8519   19.4369   23.7172 C   0  0  0  0  0  0  0  0  0  0  0  0
   19.7358   19.7899   24.7505 H   0  0  0  0  0  0  0  0  0  0  0  0
   19.2027   18.5603   23.5986 H   0  0  0  0  0  0  0  0  0  0  0  0
   21.3263   19.0438   23.4639 C   0  0  0  0  0  0  0  0  0  0  0  0
   21.9493   19.9478   23.5097 H   0  0  0  0  0  0  0  0  0  0  0  0
   21.4367   18.6537   22.4432 H   0  0  0  0  0  0  0  0  0  0  0  0
   21.8798   18.0172   24.4861 C   0  0  0  0  0  0  0  0  0  0  0  0
   22.9375   17.8275   24.2570 H   0  0  0  0  0  0  0  0  0  0  0  0
   21.8664   18.4680   25.4881 H   0  0  0  0  0  0  0  0  0  0  0  0
   21.1282   16.6624   24.5382 C   0  0  0  0  0  0  0  0  0  0  0  0
   20.0974   16.8127   24.8859 H   0  0  0  0  0  0  0  0  0  0  0  0
   21.6089   16.0251   25.2935 H   0  0  0  0  0  0  0  0  0  0  0  0
   21.1191   15.9114   23.1873 C   0  0  0  0  0  0  0  0  0  0  0  0
   20.5456   16.4568   22.4275 H   0  0  0  0  0  0  0  0  0  0  0  0
   20.6587   14.9214   23.3007 H   0  0  0  0  0  0  0  0  0  0  0  0
   22.1395   15.7659   22.8098 H   0  0  0  0  0  0  0  0  0  0  0  0
   17.5761   22.0450   21.9572 C   0  0  0  0  0  0  0  0  0  0  0  0
   16.5366   22.3386   22.1196 H   0  0  0  0  0  0  0  0  0  0  0  0
   18.2301   22.9074   22.1039 H   0  0  0  0  0  0  0  0  0  0  0  0
   17.6959   21.6578   20.9430 H   0  0  0  0  0  0  0  0  0  0  0  0
  1  2  1  0  0  0  0
  1  3  1  0  0  0  0
  1  4  1  0  0  0  0
  4  5  1  0  0  0  0
  4  6  1  0  0  0  0
  4  7  1  0  0  0  0
  7  8  1  0  0  0  0
  7  9  1  0  0  0  0
  7 10  1  0  0  0  0
 10 11  1  0  0  0  0
 10 12  1  0  0  0  0
 10 13  1  0  0  0  0
 13 14  1  0  0  0  0
 13 15  1  0  0  0  0
 13 16  1  0  0  0  0
 16 17  1  0  0  0  0
 16 18  1  0  0  0  0
 16 19  1  0  0  0  0
 19 20  1  0  0  0  0
 19 21  1  0  0  0  0
 19 22  1  0  0  0  0
  1 23  1  0  0  0  0
 23 24  1  0  0  0  0
 23 25  1  0  0  0  0
 23 26  1  0  0  0  0
M  END
> <VConfSearch Rank>
76

> <Conf_Id>
29

> <Delta U+W>
0.886

> <U+W>
22.729

> <U>
71.870

> <W>
-49.141

> <W(PB)>
-51.404

> <W(SA)>
2.262

> <Valence>
2.682

> <Coulomb>
68.933

> <VdW>
0.255

> <VdW6>
-6.833

> <VdW12>
7.088

> <Bond>
0.205

> <Angle>
1.003

> <Pdih>
1.473

> <Idih>
0.000

> <Tether>
0.000

$$$$
VeraChem MOL file


 26 25  0  0  0  0  0  0  0  0999 V2000     
   18.3333   21.0421   23.8758 N   0  3  0  0  0  0  0  0  0  0  0  0
   18.7635   21.9635   24.0507 H   0  0  0  0  0  0  0  0  0  0  0  0
   18.2534   20.5959   24.8027 H   0  0  0  0  0  0  0  0  0  0  0  0
   19.2225   20.2134   22.9710 C   0  0  0  0  0  0  0  0  0  0  0  0
   19.2912   20.7248   22.0076 H   0  0  0  0  0  0  0  0  0  0  0  0
   18.7331   19.2489   22.8152 H   0  0  0  0  0  0  0  0  0  0  0  0
   20.6359   19.9920   23.5421 C   0  0  0  0  0  0  0  0  0  0  0  0
   21.1053   20.9671   23.7284 H   0  0  0  0  0  0  0  0  0  0  0  0
   20.5673   19.4919   24.5166 H   0  0  0  0  0  0  0  0  0  0  0  0
   21.5433   19.1739   22.5900 C   0  0  0  0  0  0  0  0  0  0  0  0
   22.5374   19.0678   23.0444 H   0  0  0  0  0  0  0  0  0  0  0  0
   21.7000   19.7498   21.6674 H   0  0  0  0  0  0  0  0  0  0  0  0
   20.9936   17.7721   22.2107 C   0  0  0  0  0  0  0  0  0  0  0  0
   20.0825   17.8881   21.6083 H   0  0  0  0  0  0  0  0  0  0  0  0
   21.7206   17.2770   21.5523 H   0  0  0  0  0  0  0  0  0  0  0  0
   20.6869   16.8376   23.4087 C   0  0  0  0  0  0  0  0  0  0  0  0
   20.2956   15.8871   23.0200 H   0  0  0  0  0  0  0  0  0  0  0  0
   19.8843   17.2624   24.0263 H   0  0  0  0  0  0  0  0  0  0  0  0
   21.9229   16.5436   24.2890 C   0  0  0  0  0  0  0  0  0  0  0  0
   21.6742   15.8131   25.0696 H   0  0  0  0  0  0  0  0  0  0  0  0
   22.2863   17.4501   24.7885 H   0  0  0  0  0  0  0  0  0  0  0  0
   22.7439   16.1284   23.6902 H   0  0  0  0  0  0  0  0  0  0  0  0
   16.9589   21.2060   23.2419 C   0  0  0  0  0  0  0  0  0  0  0  0
   16.3286   21.8048   23.9032 H   0  0  0  0  0  0  0  0  0  0  0  0
   17.0656   21.7094   22.2785 H   0  0  0  0  0  0  0  0  0  0  0  0
   16.5103   20.2208   23.0971 H   0  0  0  0  0  0  0  0  0  0  0  0
  1  2  1  0  0  0  0
  1  3  1  0  0  0  0
  1  4  1  0  0  0  0
  4  5  1  0  0  0  0
  4  6  1  0  0  0  0
  4  7  1  0  0  0  0
  7  8  1  0  0  0  0
  7  9  1  0  0  0  0
  7 10  1  0  0  0  0
 10 11  1  0  0  0  0
 10 12  1  0  0  0  0
 10 13  1  0  0  0  0
 13 14  1  0  0  0  0
 13 15  1  0  0  0  0
 13 16  1  0  0  0  0
 16 17  1  0  0  0  0
 16 18  1  0  0  0  0
 16 19  1  0  0  0  0
 19 20  1  0  0  0  0
 19 21  1  0  0  0  0
 19 22  1  0  0  0  0
  1 23  1  0  0  0  0
 23 24  1  0  0  0  0
 23 25  1  0  0  0  0
 23 26  1  0  0  0  0
M  END
> <VConfSearch Rank>
77

> <Conf_Id>
82

> <Delta U+W>
1.026

> <U+W>
22.868

> <U>
72.455

> <W>
-49.586

> <W(PB)>
-51.821

> <W(SA)>
2.234

> <Valence>
2.908

> <Coulomb>
69.435

> <VdW>
0.112

> <VdW6>
-7.765

> <VdW12>
7.877

> <Bond>
0.233

> <Angle>
1.170

> <Pdih>
1.506

> <Idih>
0.000

> <Tether>
0.000

$$$$
VeraChem MOL file


 26 25  0  0  0  0  0  0  0  0999 V2000     
   20.4089   18.3811   25.8241 N   0  3  0  0  0  0  0  0  0  0  0  0
   21.0345   17.6463   25.4590 H   0  0  0  0  0  0  0  0  0  0  0  0
   19.6161   17.8788   26.2530 H   0  0  0  0  0  0  0  0  0  0  0  0
   19.9190   19.2614   24.6922 C   0  0  0  0  0  0  0  0  0  0  0  0
   20.7870   19.7700   24.2658 H   0  0  0  0  0  0  0  0  0  0  0  0
   19.2520   20.0155   25.1175 H   0  0  0  0  0  0  0  0  0  0  0  0
   19.1809   18.4804   23.5883 C   0  0  0  0  0  0  0  0  0  0  0  0
   19.8450   17.7128   23.1709 H   0  0  0  0  0  0  0  0  0  0  0  0
   18.3319   17.9447   24.0332 H   0  0  0  0  0  0  0  0  0  0  0  0
   18.6556   19.3983   22.4567 C   0  0  0  0  0  0  0  0  0  0  0  0
   17.8994   20.0779   22.8734 H   0  0  0  0  0  0  0  0  0  0  0  0
   18.1258   18.7862   21.7147 H   0  0  0  0  0  0  0  0  0  0  0  0
   19.7455   20.2466   21.7470 C   0  0  0  0  0  0  0  0  0  0  0  0
   19.2673   20.8410   20.9564 H   0  0  0  0  0  0  0  0  0  0  0  0
   20.1582   20.9773   22.4556 H   0  0  0  0  0  0  0  0  0  0  0  0
   20.9120   19.4360   21.1265 C   0  0  0  0  0  0  0  0  0  0  0  0
   21.4735   18.9149   21.9134 H   0  0  0  0  0  0  0  0  0  0  0  0
   21.6210   20.1388   20.6670 H   0  0  0  0  0  0  0  0  0  0  0  0
   20.4519   18.4219   20.0547 C   0  0  0  0  0  0  0  0  0  0  0  0
   19.8259   17.6328   20.4894 H   0  0  0  0  0  0  0  0  0  0  0  0
   21.3183   17.9366   19.5872 H   0  0  0  0  0  0  0  0  0  0  0  0
   19.8775   18.9189   19.2622 H   0  0  0  0  0  0  0  0  0  0  0  0
   21.1298   19.2281   26.8636 C   0  0  0  0  0  0  0  0  0  0  0  0
   20.4391   19.9762   27.2590 H   0  0  0  0  0  0  0  0  0  0  0  0
   21.4771   18.5824   27.6733 H   0  0  0  0  0  0  0  0  0  0  0  0
   21.9830   19.7231   26.3947 H   0  0  0  0  0  0  0  0  0  0  0  0
  1  2  1  0  0  0  0
  1  3  1  0  0  0  0
  1  4  1  0  0  0  0
  4  5  1  0  0  0  0
  4  6  1  0  0  0  0
  4  7  1  0  0  0  0
  7  8  1  0  0  0  0
  7  9  1  0  0  0  0
  7 10  1  0  0  0  0
 10 11  1  0  0  0  0
 10 12  1  0  0  0  0
 10 13  1  0  0  0  0
 13 14  1  0  0  0  0
 13 15  1  0  0  0  0
 13 16  1  0  0  0  0
 16 17  1  0  0  0  0
 16 18  1  0  0  0  0
 16 19  1  0  0  0  0
 19 20  1  0  0  0  0
 19 21  1  0  0  0  0
 19 22  1  0  0  0  0
  1 23  1  0  0  0  0
 23 24  1  0  0  0  0
 23 25  1  0  0  0  0
 23 26  1  0  0  0  0
M  END
> <VConfSearch Rank>
78

> <Conf_Id>
71

> <Delta U+W>
1.096

> <U+W>
22.938

> <U>
72.455

> <W>
-49.517

> <W(PB)>
-51.795

> <W(SA)>
2.278

> <Valence>
2.908

> <Coulomb>
69.435

> <VdW>
0.112

> <VdW6>
-7.766

> <VdW12>
7.877

> <Bond>
0.233

> <Angle>
1.170

> <Pdih>
1.506

> <Idih>
0.000

> <Tether>
0.000

$$$$
VeraChem MOL file


 26 25  0  0  0  0  0  0  0  0999 V2000     
   22.4363   19.2197   23.6587 N   0  3  0  0  0  0  0  0  0  0  0  0
   21.8597   18.3893   23.8607 H   0  0  0  0  0  0  0  0  0  0  0  0
   23.0613   19.3198   24.4742 H   0  0  0  0  0  0  0  0  0  0  0  0
   21.5509   20.4501   23.5402 C   0  0  0  0  0  0  0  0  0  0  0  0
   22.1956   21.3016   23.3080 H   0  0  0  0  0  0  0  0  0  0  0  0
   21.1049   20.6272   24.5218 H   0  0  0  0  0  0  0  0  0  0  0  0
   20.4263   20.3503   22.4846 C   0  0  0  0  0  0  0  0  0  0  0  0
   19.8525   21.2864   22.4945 H   0  0  0  0  0  0  0  0  0  0  0  0
   20.8723   20.2813   21.4840 H   0  0  0  0  0  0  0  0  0  0  0  0
   19.4604   19.1573   22.6966 C   0  0  0  0  0  0  0  0  0  0  0  0
   20.0114   18.2114   22.6094 H   0  0  0  0  0  0  0  0  0  0  0  0
   18.7300   19.1615   21.8772 H   0  0  0  0  0  0  0  0  0  0  0  0
   18.7154   19.2089   24.0550 C   0  0  0  0  0  0  0  0  0  0  0  0
   19.4449   19.2351   24.8750 H   0  0  0  0  0  0  0  0  0  0  0  0
   18.1386   20.1414   24.1253 H   0  0  0  0  0  0  0  0  0  0  0  0
   17.7745   18.0017   24.2877 C   0  0  0  0  0  0  0  0  0  0  0  0
   17.3780   18.0571   25.3112 H   0  0  0  0  0  0  0  0  0  0  0  0
   18.3484   17.0661   24.2315 H   0  0  0  0  0  0  0  0  0  0  0  0
   16.5879   17.9442   23.2986 C   0  0  0  0  0  0  0  0  0  0  0  0
   16.9264   17.7615   22.2713 H   0  0  0  0  0  0  0  0  0  0  0  0
   16.0168   18.8816   23.3116 H   0  0  0  0  0  0  0  0  0  0  0  0
   15.9024   17.1305   23.5684 H   0  0  0  0  0  0  0  0  0  0  0  0
   23.2615   19.0107   22.3943 C   0  0  0  0  0  0  0  0  0  0  0  0
   23.9052   18.1384   22.5277 H   0  0  0  0  0  0  0  0  0  0  0  0
   22.5906   18.8463   21.5487 H   0  0  0  0  0  0  0  0  0  0  0  0
   23.8739   19.8970   22.2153 H   0  0  0  0  0  0  0  0  0  0  0  0
  1  2  1  0  0  0  0
  1  3  1  0  0  0  0
  1  4  1  0  0  0  0
  4  5  1  0  0  0  0
  4  6  1  0  0  0  0
  4  7  1  0  0  0  0
  7  8  1  0  0  0  0
  7  9  1  0  0  0  0
  7 10  1  0  0  0  0
 10 11  1  0  0  0  0
 10 12  1  0  0  0  0
 10 13  1  0  0  0  0
 13 14  1  0  0  0  0
 13 15  1  0  0  0  0
 13 16  1  0  0  0  0
 16 17  1  0  0  0  0
 16 18  1  0  0  0  0
 16 19  1  0  0  0  0
 19 20  1  0  0  0  0
 19 21  1  0  0  0  0
 19 22  1  0  0  0  0
  1 23  1  0  0  0  0
 23 24  1  0  0  0  0
 23 25  1  0  0  0  0
 23 26  1  0  0  0  0
M  END
> <VConfSearch Rank>
79

> <Conf_Id>
84

> <Delta U+W>
1.456

> <U+W>
23.298

> <U>
73.042

> <W>
-49.744

> <W(PB)>
-51.966

> <W(SA)>
2.222

> <Valence>
2.938

> <Coulomb>
69.625

> <VdW>
0.478

> <VdW6>
-8.182

> <VdW12>
8.660

> <Bond>
0.253

> <Angle>
1.038

> <Pdih>
1.647

> <Idih>
0.000

> <Tether>
0.000

$$$$
VeraChem MOL file


 26 25  0  0  0  0  0  0  0  0999 V2000     
   19.3299   20.0347   25.3643 N   0  3  0  0  0  0  0  0  0  0  0  0
   19.3009   20.5476   24.4703 H   0  0  0  0  0  0  0  0  0  0  0  0
   19.9682   20.5719   25.9715 H   0  0  0  0  0  0  0  0  0  0  0  0
   19.8747   18.6373   25.1420 C   0  0  0  0  0  0  0  0  0  0  0  0
   19.1722   18.1002   24.5003 H   0  0  0  0  0  0  0  0  0  0  0  0
   19.9009   18.1340   26.1118 H   0  0  0  0  0  0  0  0  0  0  0  0
   21.2827   18.6092   24.5121 C   0  0  0  0  0  0  0  0  0  0  0  0
   21.9899   19.1054   25.1899 H   0  0  0  0  0  0  0  0  0  0  0  0
   21.6132   17.5647   24.4372 H   0  0  0  0  0  0  0  0  0  0  0  0
   21.3624   19.2714   23.1133 C   0  0  0  0  0  0  0  0  0  0  0  0
   22.4004   19.2116   22.7578 H   0  0  0  0  0  0  0  0  0  0  0  0
   21.1295   20.3417   23.1920 H   0  0  0  0  0  0  0  0  0  0  0  0
   20.4304   18.6081   22.0706 C   0  0  0  0  0  0  0  0  0  0  0  0
   20.6509   17.5332   22.0127 H   0  0  0  0  0  0  0  0  0  0  0  0
   19.3833   18.7011   22.3881 H   0  0  0  0  0  0  0  0  0  0  0  0
   20.5921   19.2418   20.6708 C   0  0  0  0  0  0  0  0  0  0  0  0
   21.6350   19.1453   20.3375 H   0  0  0  0  0  0  0  0  0  0  0  0
   20.3747   20.3179   20.7229 H   0  0  0  0  0  0  0  0  0  0  0  0
   19.6602   18.5812   19.6326 C   0  0  0  0  0  0  0  0  0  0  0  0
   19.8766   17.5095   19.5331 H   0  0  0  0  0  0  0  0  0  0  0  0
   19.7898   19.0438   18.6455 H   0  0  0  0  0  0  0  0  0  0  0  0
   18.6066   18.6919   19.9204 H   0  0  0  0  0  0  0  0  0  0  0  0
   17.9408   19.9579   25.9819 C   0  0  0  0  0  0  0  0  0  0  0  0
   18.0024   19.4377   26.9403 H   0  0  0  0  0  0  0  0  0  0  0  0
   17.5605   20.9702   26.1355 H   0  0  0  0  0  0  0  0  0  0  0  0
   17.2772   19.4128   25.3070 H   0  0  0  0  0  0  0  0  0  0  0  0
  1  2  1  0  0  0  0
  1  3  1  0  0  0  0
  1  4  1  0  0  0  0
  4  5  1  0  0  0  0
  4  6  1  0  0  0  0
  4  7  1  0  0  0  0
  7  8  1  0  0  0  0
  7  9  1  0  0  0  0
  7 10  1  0  0  0  0
 10 11  1  0  0  0  0
 10 12  1  0  0  0  0
 10 13  1  0  0  0  0
 13 14  1  0  0  0  0
 13 15  1  0  0  0  0
 13 16  1  0  0  0  0
 16 17  1  0  0  0  0
 16 18  1  0  0  0  0
 16 19  1  0  0  0  0
 19 20  1  0  0  0  0
 19 21  1  0  0  0  0
 19 22  1  0  0  0  0
  1 23  1  0  0  0  0
 23 24  1  0  0  0  0
 23 25  1  0  0  0  0
 23 26  1  0  0  0  0
M  END
> <VConfSearch Rank>
80

> <Conf_Id>
73

> <Delta U+W>
0.884

> <U+W>
22.726

> <U>
71.905

> <W>
-49.179

> <W(PB)>
-51.494

> <W(SA)>
2.315

> <Valence>
2.125

> <Coulomb>
69.686

> <VdW>
0.093

> <VdW6>
-6.766

> <VdW12>
6.859

> <Bond>
0.169

> <Angle>
0.621

> <Pdih>
1.336

> <Idih>
0.000

> <Tether>
0.000

$$$$
VeraChem MOL file


 26 25  0  0  0  0  0  0  0  0999 V2000     
   22.3926   19.1747   21.0572 N   0  3  0  0  0  0  0  0  0  0  0  0
   22.1190   20.0860   20.6578 H   0  0  0  0  0  0  0  0  0  0  0  0
   21.9738   18.4657   20.4354 H   0  0  0  0  0  0  0  0  0  0  0  0
   21.8391   19.0316   22.4608 C   0  0  0  0  0  0  0  0  0  0  0  0
   22.2998   19.8030   23.0831 H   0  0  0  0  0  0  0  0  0  0  0  0
   22.1432   18.0539   22.8430 H   0  0  0  0  0  0  0  0  0  0  0  0
   20.3064   19.1598   22.5269 C   0  0  0  0  0  0  0  0  0  0  0  0
   20.0043   20.1369   22.1267 H   0  0  0  0  0  0  0  0  0  0  0  0
   19.8481   18.3936   21.8874 H   0  0  0  0  0  0  0  0  0  0  0  0
   19.7884   19.0076   23.9743 C   0  0  0  0  0  0  0  0  0  0  0  0
   20.2533   19.7725   24.6119 H   0  0  0  0  0  0  0  0  0  0  0  0
   20.0975   18.0312   24.3730 H   0  0  0  0  0  0  0  0  0  0  0  0
   18.2498   19.1344   24.0529 C   0  0  0  0  0  0  0  0  0  0  0  0
   17.9405   20.1106   23.6544 H   0  0  0  0  0  0  0  0  0  0  0  0
   17.7848   18.3696   23.4155 H   0  0  0  0  0  0  0  0  0  0  0  0
   17.7320   18.9820   25.5006 C   0  0  0  0  0  0  0  0  0  0  0  0
   18.1925   19.7466   26.1420 H   0  0  0  0  0  0  0  0  0  0  0  0
   18.0367   18.0057   25.9031 H   0  0  0  0  0  0  0  0  0  0  0  0
   16.1954   19.1093   25.5753 C   0  0  0  0  0  0  0  0  0  0  0  0
   15.8470   18.9984   26.6104 H   0  0  0  0  0  0  0  0  0  0  0  0
   15.7051   18.3354   24.9704 H   0  0  0  0  0  0  0  0  0  0  0  0
   15.8621   20.0898   25.2112 H   0  0  0  0  0  0  0  0  0  0  0  0
   23.9085   19.0355   21.0812 C   0  0  0  0  0  0  0  0  0  0  0  0
   24.1726   18.0520   21.4761 H   0  0  0  0  0  0  0  0  0  0  0  0
   24.2940   19.1406   20.0646 H   0  0  0  0  0  0  0  0  0  0  0  0
   24.3307   19.8158   21.7183 H   0  0  0  0  0  0  0  0  0  0  0  0
  1  2  1  0  0  0  0
  1  3  1  0  0  0  0
  1  4  1  0  0  0  0
  4  5  1  0  0  0  0
  4  6  1  0  0  0  0
  4  7  1  0  0  0  0
  7  8  1  0  0  0  0
  7  9  1  0  0  0  0
  7 10  1  0  0  0  0
 10 11  1  0  0  0  0
 10 12  1  0  0  0  0
 10 13  1  0  0  0  0
 13 14  1  0  0  0  0
 13 15  1  0  0  0  0
 13 16  1  0  0  0  0
 16 17  1  0  0  0  0
 16 18  1  0  0  0  0
 16 19  1  0  0  0  0
 19 20  1  0  0  0  0
 19 21  1  0  0  0  0
 19 22  1  0  0  0  0
  1 23  1  0  0  0  0
 23 24  1  0  0  0  0
 23 25  1  0  0  0  0
 23 26  1  0  0  0  0
M  END
> <VConfSearch Rank>
81

> <Conf_Id>
11

> <Delta U+W>
0.000

> <U+W>
21.842

> <U>
70.357

> <W>
-48.515

> <W(PB)>
-50.856

> <W(SA)>
2.341

> <Valence>
1.714

> <Coulomb>
68.480

> <VdW>
0.163

> <VdW6>
-5.268

> <VdW12>
5.431

> <Bond>
0.126

> <Angle>
0.350

> <Pdih>
1.238

> <Idih>
0.000

> <Tether>
0.000

$$$$
VeraChem MOL file


 26 25  0  0  0  0  0  0  0  0999 V2000     
   17.5044   19.4377   25.5111 N   0  3  0  0  0  0  0  0  0  0  0  0
   17.2176   20.1150   26.2357 H   0  0  0  0  0  0  0  0  0  0  0  0
   17.7302   18.5742   26.0287 H   0  0  0  0  0  0  0  0  0  0  0  0
   18.7378   19.9562   24.7905 C   0  0  0  0  0  0  0  0  0  0  0  0
   19.4566   20.2604   25.5556 H   0  0  0  0  0  0  0  0  0  0  0  0
   18.4482   20.8453   24.2248 H   0  0  0  0  0  0  0  0  0  0  0  0
   19.4086   18.9326   23.8520 C   0  0  0  0  0  0  0  0  0  0  0  0
   19.6508   18.0236   24.4182 H   0  0  0  0  0  0  0  0  0  0  0  0
   18.7078   18.6411   23.0590 H   0  0  0  0  0  0  0  0  0  0  0  0
   20.6940   19.5080   23.2173 C   0  0  0  0  0  0  0  0  0  0  0  0
   21.3948   19.8017   24.0113 H   0  0  0  0  0  0  0  0  0  0  0  0
   20.4484   20.4210   22.6570 H   0  0  0  0  0  0  0  0  0  0  0  0
   21.3775   18.4912   22.2747 C   0  0  0  0  0  0  0  0  0  0  0  0
   21.6229   17.5782   22.8348 H   0  0  0  0  0  0  0  0  0  0  0  0
   20.6770   18.1977   21.4805 H   0  0  0  0  0  0  0  0  0  0  0  0
   22.6631   19.0670   21.6401 C   0  0  0  0  0  0  0  0  0  0  0  0
   23.3683   19.3599   22.4307 H   0  0  0  0  0  0  0  0  0  0  0  0
   22.4225   19.9794   21.0766 H   0  0  0  0  0  0  0  0  0  0  0  0
   23.3427   18.0489   20.6996 C   0  0  0  0  0  0  0  0  0  0  0  0
   24.2530   18.4757   20.2590 H   0  0  0  0  0  0  0  0  0  0  0  0
   22.6734   17.7623   19.8779 H   0  0  0  0  0  0  0  0  0  0  0  0
   23.6267   17.1380   21.2426 H   0  0  0  0  0  0  0  0  0  0  0  0
   16.3541   19.2022   24.5386 C   0  0  0  0  0  0  0  0  0  0  0  0
   16.6427   18.4373   23.8150 H   0  0  0  0  0  0  0  0  0  0  0  0
   15.4774   18.8668   25.0971 H   0  0  0  0  0  0  0  0  0  0  0  0
   16.1258   20.1360   24.0202 H   0  0  0  0  0  0  0  0  0  0  0  0
  1  2  1  0  0  0  0
  1  3  1  0  0  0  0
  1  4  1  0  0  0  0
  4  5  1  0  0  0  0
  4  6  1  0  0  0  0
  4  7  1  0  0  0  0
  7  8  1  0  0  0  0
  7  9  1  0  0  0  0
  7 10  1  0  0  0  0
 10 11  1  0  0  0  0
 10 12  1  0  0  0  0
 10 13  1  0  0  0  0
 13 14  1  0  0  0  0
 13 15  1  0  0  0  0
 13 16  1  0  0  0  0
 16 17  1  0  0  0  0
 16 18  1  0  0  0  0
 16 19  1  0  0  0  0
 19 20  1  0  0  0  0
 19 21  1  0  0  0  0
 19 22  1  0  0  0  0
  1 23  1  0  0  0  0
 23 24  1  0  0  0  0
 23 25  1  0  0  0  0
 23 26  1  0  0  0  0
M  END
> <VConfSearch Rank>
82

> <Conf_Id>
102

> <Delta U+W>
0.121

> <U+W>
21.963

> <U>
70.745

> <W>
-48.782

> <W(PB)>
-51.111

> <W(SA)>
2.329

> <Valence>
1.993

> <Coulomb>
68.323

> <VdW>
0.429

> <VdW6>
-5.973

> <VdW12>
6.402

> <Bond>
0.161

> <Angle>
0.472

> <Pdih>
1.360

> <Idih>
0.000

> <Tether>
0.000

$$$$
VeraChem MOL file


 26 25  0  0  0  0  0  0  0  0999 V2000     
   17.3162   17.2043   22.8098 N   0  3  0  0  0  0  0  0  0  0  0  0
   17.8326   16.3476   22.5570 H   0  0  0  0  0  0  0  0  0  0  0  0
   16.4827   17.2023   22.2005 H   0  0  0  0  0  0  0  0  0  0  0  0
   18.1596   18.4331   22.5130 C   0  0  0  0  0  0  0  0  0  0  0  0
   17.5951   19.3135   22.8302 H   0  0  0  0  0  0  0  0  0  0  0  0
   18.2873   18.4848   21.4288 H   0  0  0  0  0  0  0  0  0  0  0  0
   19.5495   18.4324   23.1815 C   0  0  0  0  0  0  0  0  0  0  0  0
   19.4365   18.4122   24.2731 H   0  0  0  0  0  0  0  0  0  0  0  0
   20.0901   17.5200   22.8965 H   0  0  0  0  0  0  0  0  0  0  0  0
   20.3724   19.6739   22.7718 C   0  0  0  0  0  0  0  0  0  0  0  0
   19.8252   20.5845   23.0528 H   0  0  0  0  0  0  0  0  0  0  0  0
   20.4840   19.6950   21.6787 H   0  0  0  0  0  0  0  0  0  0  0  0
   21.7690   19.6849   23.4343 C   0  0  0  0  0  0  0  0  0  0  0  0
   21.6577   19.6641   24.5273 H   0  0  0  0  0  0  0  0  0  0  0  0
   22.3162   18.7742   23.1537 H   0  0  0  0  0  0  0  0  0  0  0  0
   22.5919   20.9266   23.0243 C   0  0  0  0  0  0  0  0  0  0  0  0
   22.0496   21.8405   23.3049 H   0  0  0  0  0  0  0  0  0  0  0  0
   22.7084   20.9506   21.9316 H   0  0  0  0  0  0  0  0  0  0  0  0
   23.9856   20.9343   23.6878 C   0  0  0  0  0  0  0  0  0  0  0  0
   23.9019   20.9454   24.7824 H   0  0  0  0  0  0  0  0  0  0  0  0
   24.5544   21.8229   23.3847 H   0  0  0  0  0  0  0  0  0  0  0  0
   24.5657   20.0484   23.3984 H   0  0  0  0  0  0  0  0  0  0  0  0
   16.8879   17.1679   24.2725 C   0  0  0  0  0  0  0  0  0  0  0  0
   16.3288   18.0767   24.5054 H   0  0  0  0  0  0  0  0  0  0  0  0
   16.2548   16.2932   24.4375 H   0  0  0  0  0  0  0  0  0  0  0  0
   17.7737   17.1044   24.9076 H   0  0  0  0  0  0  0  0  0  0  0  0
  1  2  1  0  0  0  0
  1  3  1  0  0  0  0
  1  4  1  0  0  0  0
  4  5  1  0  0  0  0
  4  6  1  0  0  0  0
  4  7  1  0  0  0  0
  7  8  1  0  0  0  0
  7  9  1  0  0  0  0
  7 10  1  0  0  0  0
 10 11  1  0  0  0  0
 10 12  1  0  0  0  0
 10 13  1  0  0  0  0
 13 14  1  0  0  0  0
 13 15  1  0  0  0  0
 13 16  1  0  0  0  0
 16 17  1  0  0  0  0
 16 18  1  0  0  0  0
 16 19  1  0  0  0  0
 19 20  1  0  0  0  0
 19 21  1  0  0  0  0
 19 22  1  0  0  0  0
  1 23  1  0  0  0  0
 23 24  1  0  0  0  0
 23 25  1  0  0  0  0
 23 26  1  0  0  0  0
M  END
> <VConfSearch Rank>
83

> <Conf_Id>
37

> <Delta U+W>
0.125

> <U+W>
21.967

> <U>
70.745

> <W>
-48.778

> <W(PB)>
-51.115

> <W(SA)>
2.337

> <Valence>
1.993

> <Coulomb>
68.323

> <VdW>
0.429

> <VdW6>
-5.973

> <VdW12>
6.403

> <Bond>
0.161

> <Angle>
0.472

> <Pdih>
1.360

> <Idih>
0.000

> <Tether>
0.000

$$$$
VeraChem MOL file


 26 25  0  0  0  0  0  0  0  0999 V2000     
   22.9640   19.0793   22.4830 N   0  3  0  0  0  0  0  0  0  0  0  0
   23.5588   18.8093   23.2818 H   0  0  0  0  0  0  0  0  0  0  0  0
   23.0715   20.1017   22.3940 H   0  0  0  0  0  0  0  0  0  0  0  0
   21.5172   18.7282   22.7660 C   0  0  0  0  0  0  0  0  0  0  0  0
   21.4487   17.6419   22.8635 H   0  0  0  0  0  0  0  0  0  0  0  0
   20.9255   19.0349   21.9003 H   0  0  0  0  0  0  0  0  0  0  0  0
   20.9663   19.3985   24.0395 C   0  0  0  0  0  0  0  0  0  0  0  0
   21.5987   19.1190   24.8927 H   0  0  0  0  0  0  0  0  0  0  0  0
   21.0345   20.4902   23.9421 H   0  0  0  0  0  0  0  0  0  0  0  0
   19.5047   18.9941   24.3459 C   0  0  0  0  0  0  0  0  0  0  0  0
   19.2276   19.4198   25.3191 H   0  0  0  0  0  0  0  0  0  0  0  0
   19.4416   17.9024   24.4542 H   0  0  0  0  0  0  0  0  0  0  0  0
   18.5018   19.4719   23.2647 C   0  0  0  0  0  0  0  0  0  0  0  0
   18.5507   20.5656   23.1714 H   0  0  0  0  0  0  0  0  0  0  0  0
   18.7936   19.0653   22.2874 H   0  0  0  0  0  0  0  0  0  0  0  0
   17.0412   19.0432   23.5468 C   0  0  0  0  0  0  0  0  0  0  0  0
   16.9841   17.9489   23.6298 H   0  0  0  0  0  0  0  0  0  0  0  0
   16.4209   19.3178   22.6820 H   0  0  0  0  0  0  0  0  0  0  0  0
   16.4408   19.6934   24.8143 C   0  0  0  0  0  0  0  0  0  0  0  0
   16.9482   19.3497   25.7240 H   0  0  0  0  0  0  0  0  0  0  0  0
   15.3787   19.4339   24.9124 H   0  0  0  0  0  0  0  0  0  0  0  0
   16.5156   20.7877   24.7704 H   0  0  0  0  0  0  0  0  0  0  0  0
   23.4274   18.3809   21.2120 C   0  0  0  0  0  0  0  0  0  0  0  0
   22.8054   18.7073   20.3756 H   0  0  0  0  0  0  0  0  0  0  0  0
   24.4705   18.6419   21.0198 H   0  0  0  0  0  0  0  0  0  0  0  0
   23.3355   17.3003   21.3421 H   0  0  0  0  0  0  0  0  0  0  0  0
  1  2  1  0  0  0  0
  1  3  1  0  0  0  0
  1  4  1  0  0  0  0
  4  5  1  0  0  0  0
  4  6  1  0  0  0  0
  4  7  1  0  0  0  0
  7  8  1  0  0  0  0
  7  9  1  0  0  0  0
  7 10  1  0  0  0  0
 10 11  1  0  0  0  0
 10 12  1  0  0  0  0
 10 13  1  0  0  0  0
 13 14  1  0  0  0  0
 13 15  1  0  0  0  0
 13 16  1  0  0  0  0
 16 17  1  0  0  0  0
 16 18  1  0  0  0  0
 16 19  1  0  0  0  0
 19 20  1  0  0  0  0
 19 21  1  0  0  0  0
 19 22  1  0  0  0  0
  1 23  1  0  0  0  0
 23 24  1  0  0  0  0
 23 25  1  0  0  0  0
 23 26  1  0  0  0  0
M  END
> <VConfSearch Rank>
84

> <Conf_Id>
137

> <Delta U+W>
1.038

> <U+W>
22.880

> <U>
71.810

> <W>
-48.930

> <W(PB)>
-51.257

> <W(SA)>
2.327

> <Valence>
2.568

> <Coulomb>
68.877

> <VdW>
0.364

> <VdW6>
-6.470

> <VdW12>
6.834

> <Bond>
0.191

> <Angle>
0.752

> <Pdih>
1.626

> <Idih>
0.000

> <Tether>
0.000

$$$$
VeraChem MOL file


 26 25  0  0  0  0  0  0  0  0999 V2000     
   17.9525   20.8746   22.2755 N   0  3  0  0  0  0  0  0  0  0  0  0
   17.5437   20.8393   23.2223 H   0  0  0  0  0  0  0  0  0  0  0  0
   17.4600   20.1454   21.7364 H   0  0  0  0  0  0  0  0  0  0  0  0
   19.4358   20.5691   22.3344 C   0  0  0  0  0  0  0  0  0  0  0  0
   19.9176   21.3572   22.9185 H   0  0  0  0  0  0  0  0  0  0  0  0
   19.8268   20.6086   21.3145 H   0  0  0  0  0  0  0  0  0  0  0  0
   19.7509   19.1969   22.9571 C   0  0  0  0  0  0  0  0  0  0  0  0
   19.3374   19.1626   23.9729 H   0  0  0  0  0  0  0  0  0  0  0  0
   19.2517   18.4098   22.3765 H   0  0  0  0  0  0  0  0  0  0  0  0
   21.2745   18.9314   22.9923 C   0  0  0  0  0  0  0  0  0  0  0  0
   21.7689   19.6910   23.6138 H   0  0  0  0  0  0  0  0  0  0  0  0
   21.6808   19.0517   21.9782 H   0  0  0  0  0  0  0  0  0  0  0  0
   21.6466   17.5183   23.5055 C   0  0  0  0  0  0  0  0  0  0  0  0
   21.1667   16.7584   22.8734 H   0  0  0  0  0  0  0  0  0  0  0  0
   22.7299   17.3787   23.3853 H   0  0  0  0  0  0  0  0  0  0  0  0
   21.2706   17.2777   24.9870 C   0  0  0  0  0  0  0  0  0  0  0  0
   20.1817   17.3343   25.1165 H   0  0  0  0  0  0  0  0  0  0  0  0
   21.7077   18.0674   25.6140 H   0  0  0  0  0  0  0  0  0  0  0  0
   21.7621   15.9008   25.4827 C   0  0  0  0  0  0  0  0  0  0  0  0
   21.3182   15.0878   24.8935 H   0  0  0  0  0  0  0  0  0  0  0  0
   21.4847   15.7454   26.5334 H   0  0  0  0  0  0  0  0  0  0  0  0
   22.8544   15.8204   25.4078 H   0  0  0  0  0  0  0  0  0  0  0  0
   17.7301   22.2440   21.6486 C   0  0  0  0  0  0  0  0  0  0  0  0
   18.1409   22.2467   20.6366 H   0  0  0  0  0  0  0  0  0  0  0  0
   16.6583   22.4515   21.6122 H   0  0  0  0  0  0  0  0  0  0  0  0
   18.2322   23.0019   22.2539 H   0  0  0  0  0  0  0  0  0  0  0  0
  1  2  1  0  0  0  0
  1  3  1  0  0  0  0
  1  4  1  0  0  0  0
  4  5  1  0  0  0  0
  4  6  1  0  0  0  0
  4  7  1  0  0  0  0
  7  8  1  0  0  0  0
  7  9  1  0  0  0  0
  7 10  1  0  0  0  0
 10 11  1  0  0  0  0
 10 12  1  0  0  0  0
 10 13  1  0  0  0  0
 13 14  1  0  0  0  0
 13 15  1  0  0  0  0
 13 16  1  0  0  0  0
 16 17  1  0  0  0  0
 16 18  1  0  0  0  0
 16 19  1  0  0  0  0
 19 20  1  0  0  0  0
 19 21  1  0  0  0  0
 19 22  1  0  0  0  0
  1 23  1  0  0  0  0
 23 24  1  0  0  0  0
 23 25  1  0  0  0  0
 23 26  1  0  0  0  0
M  END
> <VConfSearch Rank>
85

> <Conf_Id>
35

> <Delta U+W>
0.670

> <U+W>
22.512

> <U>
71.348

> <W>
-48.837

> <W(PB)>
-51.150

> <W(SA)>
2.313

> <Valence>
2.262

> <Coulomb>
68.807

> <VdW>
0.280

> <VdW6>
-5.915

> <VdW12>
6.195

> <Bond>
0.164

> <Angle>
0.622

> <Pdih>
1.475

> <Idih>
0.000

> <Tether>
0.000

$$$$
VeraChem MOL file


 26 25  0  0  0  0  0  0  0  0999 V2000     
   21.2571   16.4616   24.0511 N   0  3  0  0  0  0  0  0  0  0  0  0
   20.5566   15.8802   23.5651 H   0  0  0  0  0  0  0  0  0  0  0  0
   20.8756   16.6179   24.9971 H   0  0  0  0  0  0  0  0  0  0  0  0
   21.4294   17.7841   23.3313 C   0  0  0  0  0  0  0  0  0  0  0  0
   21.8262   17.5740   22.3349 H   0  0  0  0  0  0  0  0  0  0  0  0
   22.1703   18.3707   23.8803 H   0  0  0  0  0  0  0  0  0  0  0  0
   20.1210   18.5861   23.2094 C   0  0  0  0  0  0  0  0  0  0  0  0
   19.3746   17.9865   22.6715 H   0  0  0  0  0  0  0  0  0  0  0  0
   19.7229   18.7743   24.2143 H   0  0  0  0  0  0  0  0  0  0  0  0
   20.3481   19.9239   22.4664 C   0  0  0  0  0  0  0  0  0  0  0  0
   20.8227   19.7171   21.4970 H   0  0  0  0  0  0  0  0  0  0  0  0
   21.0580   20.5451   23.0302 H   0  0  0  0  0  0  0  0  0  0  0  0
   19.0455   20.7229   22.2146 C   0  0  0  0  0  0  0  0  0  0  0  0
   19.2860   21.5907   21.5849 H   0  0  0  0  0  0  0  0  0  0  0  0
   18.3424   20.1084   21.6355 H   0  0  0  0  0  0  0  0  0  0  0  0
   18.3608   21.2174   23.5110 C   0  0  0  0  0  0  0  0  0  0  0  0
   19.0790   21.7887   24.1156 H   0  0  0  0  0  0  0  0  0  0  0  0
   18.0400   20.3625   24.1209 H   0  0  0  0  0  0  0  0  0  0  0  0
   17.1331   22.1017   23.2048 C   0  0  0  0  0  0  0  0  0  0  0  0
   17.4203   22.9916   22.6297 H   0  0  0  0  0  0  0  0  0  0  0  0
   16.6582   22.4411   24.1345 H   0  0  0  0  0  0  0  0  0  0  0  0
   16.3824   21.5481   22.6259 H   0  0  0  0  0  0  0  0  0  0  0  0
   22.5931   15.7355   24.1276 C   0  0  0  0  0  0  0  0  0  0  0  0
   23.3077   16.3549   24.6742 H   0  0  0  0  0  0  0  0  0  0  0  0
   22.4551   14.7851   24.6480 H   0  0  0  0  0  0  0  0  0  0  0  0
   22.9606   15.5519   23.1156 H   0  0  0  0  0  0  0  0  0  0  0  0
  1  2  1  0  0  0  0
  1  3  1  0  0  0  0
  1  4  1  0  0  0  0
  4  5  1  0  0  0  0
  4  6  1  0  0  0  0
  4  7  1  0  0  0  0
  7  8  1  0  0  0  0
  7  9  1  0  0  0  0
  7 10  1  0  0  0  0
 10 11  1  0  0  0  0
 10 12  1  0  0  0  0
 10 13  1  0  0  0  0
 13 14  1  0  0  0  0
 13 15  1  0  0  0  0
 13 16  1  0  0  0  0
 16 17  1  0  0  0  0
 16 18  1  0  0  0  0
 16 19  1  0  0  0  0
 19 20  1  0  0  0  0
 19 21  1  0  0  0  0
 19 22  1  0  0  0  0
  1 23  1  0  0  0  0
 23 24  1  0  0  0  0
 23 25  1  0  0  0  0
 23 26  1  0  0  0  0
M  END
> <VConfSearch Rank>
86

> <Conf_Id>
36

> <Delta U+W>
0.662

> <U+W>
22.504

> <U>
71.348

> <W>
-48.844

> <W(PB)>
-51.157

> <W(SA)>
2.313

> <Valence>
2.262

> <Coulomb>
68.807

> <VdW>
0.280

> <VdW6>
-5.916

> <VdW12>
6.195

> <Bond>
0.164

> <Angle>
0.622

> <Pdih>
1.475

> <Idih>
0.000

> <Tether>
0.000

$$$$
VeraChem MOL file


 26 25  0  0  0  0  0  0  0  0999 V2000     
   18.2388   19.6099   25.5823 N   0  3  0  0  0  0  0  0  0  0  0  0
   18.9604   19.8047   26.2937 H   0  0  0  0  0  0  0  0  0  0  0  0
   17.7116   18.7986   25.9410 H   0  0  0  0  0  0  0  0  0  0  0  0
   18.8897   19.2665   24.2576 C   0  0  0  0  0  0  0  0  0  0  0  0
   19.4390   20.1479   23.9185 H   0  0  0  0  0  0  0  0  0  0  0  0
   18.0946   19.0573   23.5375 H   0  0  0  0  0  0  0  0  0  0  0  0
   19.8426   18.0586   24.3425 C   0  0  0  0  0  0  0  0  0  0  0  0
   20.6406   18.2681   25.0674 H   0  0  0  0  0  0  0  0  0  0  0  0
   19.2892   17.1911   24.7261 H   0  0  0  0  0  0  0  0  0  0  0  0
   20.4658   17.6917   22.9749 C   0  0  0  0  0  0  0  0  0  0  0  0
   19.6658   17.4559   22.2593 H   0  0  0  0  0  0  0  0  0  0  0  0
   21.0574   16.7732   23.0926 H   0  0  0  0  0  0  0  0  0  0  0  0
   21.3694   18.8087   22.3989 C   0  0  0  0  0  0  0  0  0  0  0  0
   20.7793   19.7193   22.2296 H   0  0  0  0  0  0  0  0  0  0  0  0
   22.1479   19.0654   23.1307 H   0  0  0  0  0  0  0  0  0  0  0  0
   22.0336   18.3820   21.0708 C   0  0  0  0  0  0  0  0  0  0  0  0
   21.2592   18.1233   20.3350 H   0  0  0  0  0  0  0  0  0  0  0  0
   22.6344   17.4756   21.2302 H   0  0  0  0  0  0  0  0  0  0  0  0
   22.9332   19.4973   20.4965 C   0  0  0  0  0  0  0  0  0  0  0  0
   22.3533   20.4071   20.2931 H   0  0  0  0  0  0  0  0  0  0  0  0
   23.3959   19.1755   19.5545 H   0  0  0  0  0  0  0  0  0  0  0  0
   23.7387   19.7547   21.1965 H   0  0  0  0  0  0  0  0  0  0  0  0
   17.3192   20.8112   25.4114 C   0  0  0  0  0  0  0  0  0  0  0  0
   16.5454   20.5699   24.6793 H   0  0  0  0  0  0  0  0  0  0  0  0
   16.8568   21.0478   26.3724 H   0  0  0  0  0  0  0  0  0  0  0  0
   17.9046   21.6651   25.0636 H   0  0  0  0  0  0  0  0  0  0  0  0
  1  2  1  0  0  0  0
  1  3  1  0  0  0  0
  1  4  1  0  0  0  0
  4  5  1  0  0  0  0
  4  6  1  0  0  0  0
  4  7  1  0  0  0  0
  7  8  1  0  0  0  0
  7  9  1  0  0  0  0
  7 10  1  0  0  0  0
 10 11  1  0  0  0  0
 10 12  1  0  0  0  0
 10 13  1  0  0  0  0
 13 14  1  0  0  0  0
 13 15  1  0  0  0  0
 13 16  1  0  0  0  0
 16 17  1  0  0  0  0
 16 18  1  0  0  0  0
 16 19  1  0  0  0  0
 19 20  1  0  0  0  0
 19 21  1  0  0  0  0
 19 22  1  0  0  0  0
  1 23  1  0  0  0  0
 23 24  1  0  0  0  0
 23 25  1  0  0  0  0
 23 26  1  0  0  0  0
M  END
> <VConfSearch Rank>
87

> <Conf_Id>
46

> <Delta U+W>
0.496

> <U+W>
22.338

> <U>
71.138

> <W>
-48.799

> <W(PB)>
-51.136

> <W(SA)>
2.337

> <Valence>
2.016

> <Coulomb>
68.932

> <VdW>
0.190

> <VdW6>
-5.902

> <VdW12>
6.092

> <Bond>
0.149

> <Angle>
0.477

> <Pdih>
1.390

> <Idih>
0.000

> <Tether>
0.000

$$$$
VeraChem MOL file


 26 25  0  0  0  0  0  0  0  0999 V2000     
   17.1471   19.2166   24.3729 N   0  3  0  0  0  0  0  0  0  0  0  0
   17.0257   19.6563   25.2985 H   0  0  0  0  0  0  0  0  0  0  0  0
   17.0324   18.2037   24.5330 H   0  0  0  0  0  0  0  0  0  0  0  0
   18.5331   19.5073   23.8335 C   0  0  0  0  0  0  0  0  0  0  0  0
   18.6169   20.5873   23.6886 H   0  0  0  0  0  0  0  0  0  0  0  0
   18.6195   19.0208   22.8591 H   0  0  0  0  0  0  0  0  0  0  0  0
   19.6622   19.0199   24.7619 C   0  0  0  0  0  0  0  0  0  0  0  0
   19.5385   19.4819   25.7504 H   0  0  0  0  0  0  0  0  0  0  0  0
   19.5770   17.9350   24.9090 H   0  0  0  0  0  0  0  0  0  0  0  0
   21.0704   19.3621   24.2206 C   0  0  0  0  0  0  0  0  0  0  0  0
   21.8172   19.0689   24.9716 H   0  0  0  0  0  0  0  0  0  0  0  0
   21.1622   20.4506   24.1005 H   0  0  0  0  0  0  0  0  0  0  0  0
   21.3940   18.6595   22.8799 C   0  0  0  0  0  0  0  0  0  0  0  0
   21.2689   17.5738   22.9946 H   0  0  0  0  0  0  0  0  0  0  0  0
   20.6844   18.9815   22.1061 H   0  0  0  0  0  0  0  0  0  0  0  0
   22.8326   18.9634   22.4051 C   0  0  0  0  0  0  0  0  0  0  0  0
   23.5526   18.6371   23.1687 H   0  0  0  0  0  0  0  0  0  0  0  0
   22.9637   20.0485   22.2894 H   0  0  0  0  0  0  0  0  0  0  0  0
   23.1536   18.2635   21.0672 C   0  0  0  0  0  0  0  0  0  0  0  0
   23.0640   17.1733   21.1603 H   0  0  0  0  0  0  0  0  0  0  0  0
   24.1787   18.4908   20.7470 H   0  0  0  0  0  0  0  0  0  0  0  0
   22.4717   18.5960   20.2738 H   0  0  0  0  0  0  0  0  0  0  0  0
   16.0946   19.7256   23.3977 C   0  0  0  0  0  0  0  0  0  0  0  0
   15.1014   19.5102   23.7980 H   0  0  0  0  0  0  0  0  0  0  0  0
   16.2149   20.8036   23.2698 H   0  0  0  0  0  0  0  0  0  0  0  0
   16.2220   19.2223   22.4367 H   0  0  0  0  0  0  0  0  0  0  0  0
  1  2  1  0  0  0  0
  1  3  1  0  0  0  0
  1  4  1  0  0  0  0
  4  5  1  0  0  0  0
  4  6  1  0  0  0  0
  4  7  1  0  0  0  0
  7  8  1  0  0  0  0
  7  9  1  0  0  0  0
  7 10  1  0  0  0  0
 10 11  1  0  0  0  0
 10 12  1  0  0  0  0
 10 13  1  0  0  0  0
 13 14  1  0  0  0  0
 13 15  1  0  0  0  0
 13 16  1  0  0  0  0
 16 17  1  0  0  0  0
 16 18  1  0  0  0  0
 16 19  1  0  0  0  0
 19 20  1  0  0  0  0
 19 21  1  0  0  0  0
 19 22  1  0  0  0  0
  1 23  1  0  0  0  0
 23 24  1  0  0  0  0
 23 25  1  0  0  0  0
 23 26  1  0  0  0  0
M  END
> <VConfSearch Rank>
88

> <Conf_Id>
45

> <Delta U+W>
0.471

> <U+W>
22.313

> <U>
71.138

> <W>
-48.825

> <W(PB)>
-51.169

> <W(SA)>
2.344

> <Valence>
2.016

> <Coulomb>
68.932

> <VdW>
0.190

> <VdW6>
-5.902

> <VdW12>
6.092

> <Bond>
0.149

> <Angle>
0.477

> <Pdih>
1.390

> <Idih>
0.000

> <Tether>
0.000

$$$$
VeraChem MOL file


 26 25  0  0  0  0  0  0  0  0999 V2000     
   19.1797   18.4374   20.9383 N   0  3  0  0  0  0  0  0  0  0  0  0
   18.6097   19.2197   21.2936 H   0  0  0  0  0  0  0  0  0  0  0  0
   18.8027   17.5915   21.3933 H   0  0  0  0  0  0  0  0  0  0  0  0
   20.6327   18.6344   21.3250 C   0  0  0  0  0  0  0  0  0  0  0  0
   20.9926   19.5416   20.8331 H   0  0  0  0  0  0  0  0  0  0  0  0
   21.1971   17.7856   20.9306 H   0  0  0  0  0  0  0  0  0  0  0  0
   20.8655   18.7413   22.8449 C   0  0  0  0  0  0  0  0  0  0  0  0
   20.5027   17.8256   23.3286 H   0  0  0  0  0  0  0  0  0  0  0  0
   21.9473   18.7868   23.0278 H   0  0  0  0  0  0  0  0  0  0  0  0
   20.1868   19.9887   23.4645 C   0  0  0  0  0  0  0  0  0  0  0  0
   19.0956   19.9123   23.3680 H   0  0  0  0  0  0  0  0  0  0  0  0
   20.4866   20.8784   22.8933 H   0  0  0  0  0  0  0  0  0  0  0  0
   20.5528   20.2149   24.9522 C   0  0  0  0  0  0  0  0  0  0  0  0
   21.6422   20.3166   25.0526 H   0  0  0  0  0  0  0  0  0  0  0  0
   20.1236   21.1737   25.2745 H   0  0  0  0  0  0  0  0  0  0  0  0
   20.0444   19.0954   25.8915 C   0  0  0  0  0  0  0  0  0  0  0  0
   20.5202   18.1396   25.6349 H   0  0  0  0  0  0  0  0  0  0  0  0
   18.9624   18.9595   25.7557 H   0  0  0  0  0  0  0  0  0  0  0  0
   20.3370   19.4183   27.3724 C   0  0  0  0  0  0  0  0  0  0  0  0
   21.4152   19.5305   27.5463 H   0  0  0  0  0  0  0  0  0  0  0  0
   19.9729   18.6134   28.0240 H   0  0  0  0  0  0  0  0  0  0  0  0
   19.8426   20.3491   27.6794 H   0  0  0  0  0  0  0  0  0  0  0  0
   19.0557   18.3310   19.4248 C   0  0  0  0  0  0  0  0  0  0  0  0
   19.6416   17.4779   19.0756 H   0  0  0  0  0  0  0  0  0  0  0  0
   18.0053   18.1901   19.1603 H   0  0  0  0  0  0  0  0  0  0  0  0
   19.4311   19.2495   18.9683 H   0  0  0  0  0  0  0  0  0  0  0  0
  1  2  1  0  0  0  0
  1  3  1  0  0  0  0
  1  4  1  0  0  0  0
  4  5  1  0  0  0  0
  4  6  1  0  0  0  0
  4  7  1  0  0  0  0
  7  8  1  0  0  0  0
  7  9  1  0  0  0  0
  7 10  1  0  0  0  0
 10 11  1  0  0  0  0
 10 12  1  0  0  0  0
 10 13  1  0  0  0  0
 13 14  1  0  0  0  0
 13 15  1  0  0  0  0
 13 16  1  0  0  0  0
 16 17  1  0  0  0  0
 16 18  1  0  0  0  0
 16 19  1  0  0  0  0
 19 20  1  0  0  0  0
 19 21  1  0  0  0  0
 19 22  1  0  0  0  0
  1 23  1  0  0  0  0
 23 24  1  0  0  0  0
 23 25  1  0  0  0  0
 23 26  1  0  0  0  0
M  END
> <VConfSearch Rank>
89

> <Conf_Id>
143

> <Delta U+W>
0.915

> <U+W>
22.757

> <U>
71.994

> <W>
-49.237

> <W(PB)>
-51.537

> <W(SA)>
2.300

> <Valence>
2.376

> <Coulomb>
69.315

> <VdW>
0.303

> <VdW6>
-6.508

> <VdW12>
6.810

> <Bond>
0.182

> <Angle>
0.660

> <Pdih>
1.534

> <Idih>
0.000

> <Tether>
0.000

$$$$
VeraChem MOL file


 26 25  0  0  0  0  0  0  0  0999 V2000     
   18.5092   20.9233   24.3249 N   0  3  0  0  0  0  0  0  0  0  0  0
   18.6759   21.3124   23.3848 H   0  0  0  0  0  0  0  0  0  0  0  0
   19.2727   21.2890   24.9148 H   0  0  0  0  0  0  0  0  0  0  0  0
   18.5644   19.4083   24.2802 C   0  0  0  0  0  0  0  0  0  0  0  0
   17.7500   19.0588   23.6406 H   0  0  0  0  0  0  0  0  0  0  0  0
   18.3821   19.0435   25.2942 H   0  0  0  0  0  0  0  0  0  0  0  0
   19.9047   18.8436   23.7691 C   0  0  0  0  0  0  0  0  0  0  0  0
   20.7247   19.2201   24.3949 H   0  0  0  0  0  0  0  0  0  0  0  0
   19.8790   17.7545   23.8964 H   0  0  0  0  0  0  0  0  0  0  0  0
   20.1685   19.1817   22.2814 C   0  0  0  0  0  0  0  0  0  0  0  0
   20.0898   20.2666   22.1329 H   0  0  0  0  0  0  0  0  0  0  0  0
   19.3816   18.7309   21.6610 H   0  0  0  0  0  0  0  0  0  0  0  0
   21.5572   18.7296   21.7594 C   0  0  0  0  0  0  0  0  0  0  0  0
   21.6412   19.0617   20.7153 H   0  0  0  0  0  0  0  0  0  0  0  0
   22.3545   19.2569   22.3012 H   0  0  0  0  0  0  0  0  0  0  0  0
   21.8033   17.1990   21.7990 C   0  0  0  0  0  0  0  0  0  0  0  0
   22.4002   16.9177   20.9200 H   0  0  0  0  0  0  0  0  0  0  0  0
   20.8527   16.6560   21.7038 H   0  0  0  0  0  0  0  0  0  0  0  0
   22.5662   16.7320   23.0610 C   0  0  0  0  0  0  0  0  0  0  0  0
   22.0200   16.9606   23.9827 H   0  0  0  0  0  0  0  0  0  0  0  0
   23.5506   17.2138   23.1241 H   0  0  0  0  0  0  0  0  0  0  0  0
   22.7289   15.6468   23.0316 H   0  0  0  0  0  0  0  0  0  0  0  0
   17.1573   21.3771   24.8579 C   0  0  0  0  0  0  0  0  0  0  0  0
   17.0169   20.9799   25.8656 H   0  0  0  0  0  0  0  0  0  0  0  0
   17.1308   22.4687   24.8847 H   0  0  0  0  0  0  0  0  0  0  0  0
   16.3687   21.0050   24.2002 H   0  0  0  0  0  0  0  0  0  0  0  0
  1  2  1  0  0  0  0
  1  3  1  0  0  0  0
  1  4  1  0  0  0  0
  4  5  1  0  0  0  0
  4  6  1  0  0  0  0
  4  7  1  0  0  0  0
  7  8  1  0  0  0  0
  7  9  1  0  0  0  0
  7 10  1  0  0  0  0
 10 11  1  0  0  0  0
 10 12  1  0  0  0  0
 10 13  1  0  0  0  0
 13 14  1  0  0  0  0
 13 15  1  0  0  0  0
 13 16  1  0  0  0  0
 16 17  1  0  0  0  0
 16 18  1  0  0  0  0
 16 19  1  0  0  0  0
 19 20  1  0  0  0  0
 19 21  1  0  0  0  0
 19 22  1  0  0  0  0
  1 23  1  0  0  0  0
 23 24  1  0  0  0  0
 23 25  1  0  0  0  0
 23 26  1  0  0  0  0
M  END
> <VConfSearch Rank>
90

> <Conf_Id>
76

> <Delta U+W>
3.468

> <U+W>
25.310

> <U>
74.594

> <W>
-49.283

> <W(PB)>
-51.537

> <W(SA)>
2.253

> <Valence>
4.886

> <Coulomb>
69.332

> <VdW>
0.376

> <VdW6>
-7.329

> <VdW12>
7.705

> <Bond>
0.232

> <Angle>
1.251

> <Pdih>
3.403

> <Idih>
0.000

> <Tether>
0.000

$$$$
VeraChem MOL file


 26 25  0  0  0  0  0  0  0  0999 V2000     
   20.7688   18.3722   25.9385 N   0  3  0  0  0  0  0  0  0  0  0  0
   20.4127   17.4398   25.6769 H   0  0  0  0  0  0  0  0  0  0  0  0
   20.0062   18.8177   26.4721 H   0  0  0  0  0  0  0  0  0  0  0  0
   21.0794   19.1816   24.6954 C   0  0  0  0  0  0  0  0  0  0  0  0
   21.8837   18.6739   24.1571 H   0  0  0  0  0  0  0  0  0  0  0  0
   21.4439   20.1610   25.0155 H   0  0  0  0  0  0  0  0  0  0  0  0
   19.8657   19.3593   23.7652 C   0  0  0  0  0  0  0  0  0  0  0  0
   19.4911   18.3729   23.4698 H   0  0  0  0  0  0  0  0  0  0  0  0
   19.0557   19.8545   24.3170 H   0  0  0  0  0  0  0  0  0  0  0  0
   20.2307   20.2002   22.5181 C   0  0  0  0  0  0  0  0  0  0  0  0
   21.0797   19.7485   21.9864 H   0  0  0  0  0  0  0  0  0  0  0  0
   20.5772   21.1852   22.8607 H   0  0  0  0  0  0  0  0  0  0  0  0
   19.0424   20.4098   21.5432 C   0  0  0  0  0  0  0  0  0  0  0  0
   18.0921   20.4131   22.0946 H   0  0  0  0  0  0  0  0  0  0  0  0
   19.1328   21.4135   21.1050 H   0  0  0  0  0  0  0  0  0  0  0  0
   18.9759   19.3955   20.3726 C   0  0  0  0  0  0  0  0  0  0  0  0
   19.8878   19.4744   19.7643 H   0  0  0  0  0  0  0  0  0  0  0  0
   18.1451   19.6806   19.7119 H   0  0  0  0  0  0  0  0  0  0  0  0
   18.7780   17.9278   20.8106 C   0  0  0  0  0  0  0  0  0  0  0  0
   17.9110   17.8258   21.4760 H   0  0  0  0  0  0  0  0  0  0  0  0
   19.6650   17.5433   21.3287 H   0  0  0  0  0  0  0  0  0  0  0  0
   18.6070   17.2867   19.9362 H   0  0  0  0  0  0  0  0  0  0  0  0
   22.0183   18.2443   26.7989 C   0  0  0  0  0  0  0  0  0  0  0  0
   22.7996   17.7411   26.2250 H   0  0  0  0  0  0  0  0  0  0  0  0
   22.3571   19.2409   27.0906 H   0  0  0  0  0  0  0  0  0  0  0  0
   21.7810   17.6597   27.6905 H   0  0  0  0  0  0  0  0  0  0  0  0
  1  2  1  0  0  0  0
  1  3  1  0  0  0  0
  1  4  1  0  0  0  0
  4  5  1  0  0  0  0
  4  6  1  0  0  0  0
  4  7  1  0  0  0  0
  7  8  1  0  0  0  0
  7  9  1  0  0  0  0
  7 10  1  0  0  0  0
 10 11  1  0  0  0  0
 10 12  1  0  0  0  0
 10 13  1  0  0  0  0
 13 14  1  0  0  0  0
 13 15  1  0  0  0  0
 13 16  1  0  0  0  0
 16 17  1  0  0  0  0
 16 18  1  0  0  0  0
 16 19  1  0  0  0  0
 19 20  1  0  0  0  0
 19 21  1  0  0  0  0
 19 22  1  0  0  0  0
  1 23  1  0  0  0  0
 23 24  1  0  0  0  0
 23 25  1  0  0  0  0
 23 26  1  0  0  0  0
M  END
> <VConfSearch Rank>
91

> <Conf_Id>
123

> <Delta U+W>
3.101

> <U+W>
24.943

> <U>
74.070

> <W>
-49.127

> <W(PB)>
-51.421

> <W(SA)>
2.295

> <Valence>
4.690

> <Coulomb>
69.115

> <VdW>
0.266

> <VdW6>
-6.809

> <VdW12>
7.075

> <Bond>
0.212

> <Angle>
1.133

> <Pdih>
3.345

> <Idih>
0.000

> <Tether>
0.000

$$$$
VeraChem MOL file


 26 25  0  0  0  0  0  0  0  0999 V2000     
   22.1182   20.3993   24.3988 N   0  3  0  0  0  0  0  0  0  0  0  0
   22.9339   20.0212   23.8924 H   0  0  0  0  0  0  0  0  0  0  0  0
   21.8754   19.6865   25.1032 H   0  0  0  0  0  0  0  0  0  0  0  0
   20.9588   20.6027   23.4425 C   0  0  0  0  0  0  0  0  0  0  0  0
   21.2596   21.3633   22.7176 H   0  0  0  0  0  0  0  0  0  0  0  0
   20.1136   20.9926   24.0152 H   0  0  0  0  0  0  0  0  0  0  0  0
   20.5321   19.3245   22.6940 C   0  0  0  0  0  0  0  0  0  0  0  0
   19.7710   19.5990   21.9550 H   0  0  0  0  0  0  0  0  0  0  0  0
   21.3857   18.9332   22.1249 H   0  0  0  0  0  0  0  0  0  0  0  0
   19.9861   18.2292   23.6455 C   0  0  0  0  0  0  0  0  0  0  0  0
   19.1949   18.6401   24.2878 H   0  0  0  0  0  0  0  0  0  0  0  0
   20.7947   17.9176   24.3201 H   0  0  0  0  0  0  0  0  0  0  0  0
   19.4664   16.9712   22.9014 C   0  0  0  0  0  0  0  0  0  0  0  0
   20.0120   16.8330   21.9578 H   0  0  0  0  0  0  0  0  0  0  0  0
   19.7049   16.0893   23.5121 H   0  0  0  0  0  0  0  0  0  0  0  0
   17.9382   16.9573   22.6408 C   0  0  0  0  0  0  0  0  0  0  0  0
   17.4009   16.9921   23.5989 H   0  0  0  0  0  0  0  0  0  0  0  0
   17.6723   15.9963   22.1787 H   0  0  0  0  0  0  0  0  0  0  0  0
   17.4364   18.0996   21.7305 C   0  0  0  0  0  0  0  0  0  0  0  0
   17.9946   18.1282   20.7859 H   0  0  0  0  0  0  0  0  0  0  0  0
   17.5324   19.0745   22.2241 H   0  0  0  0  0  0  0  0  0  0  0  0
   16.3750   17.9587   21.4886 H   0  0  0  0  0  0  0  0  0  0  0  0
   22.4712   21.7176   25.0733 C   0  0  0  0  0  0  0  0  0  0  0  0
   21.6033   22.0809   25.6279 H   0  0  0  0  0  0  0  0  0  0  0  0
   23.3063   21.5569   25.7588 H   0  0  0  0  0  0  0  0  0  0  0  0
   22.7549   22.4463   24.3108 H   0  0  0  0  0  0  0  0  0  0  0  0
  1  2  1  0  0  0  0
  1  3  1  0  0  0  0
  1  4  1  0  0  0  0
  4  5  1  0  0  0  0
  4  6  1  0  0  0  0
  4  7  1  0  0  0  0
  7  8  1  0  0  0  0
  7  9  1  0  0  0  0
  7 10  1  0  0  0  0
 10 11  1  0  0  0  0
 10 12  1  0  0  0  0
 10 13  1  0  0  0  0
 13 14  1  0  0  0  0
 13 15  1  0  0  0  0
 13 16  1  0  0  0  0
 16 17  1  0  0  0  0
 16 18  1  0  0  0  0
 16 19  1  0  0  0  0
 19 20  1  0  0  0  0
 19 21  1  0  0  0  0
 19 22  1  0  0  0  0
  1 23  1  0  0  0  0
 23 24  1  0  0  0  0
 23 25  1  0  0  0  0
 23 26  1  0  0  0  0
M  END
> <VConfSearch Rank>
92

> <Conf_Id>
111

> <Delta U+W>
3.383

> <U+W>
25.225

> <U>
74.516

> <W>
-49.292

> <W(PB)>
-51.558

> <W(SA)>
2.266

> <Valence>
4.842

> <Coulomb>
69.333

> <VdW>
0.342

> <VdW6>
-7.369

> <VdW12>
7.711

> <Bond>
0.232

> <Angle>
1.153

> <Pdih>
3.457

> <Idih>
0.000

> <Tether>
0.000

$$$$
VeraChem MOL file


 26 25  0  0  0  0  0  0  0  0999 V2000     
   19.8118   17.0158   24.4140 N   0  3  0  0  0  0  0  0  0  0  0  0
   19.7790   16.1863   23.8013 H   0  0  0  0  0  0  0  0  0  0  0  0
   19.0122   17.6017   24.1302 H   0  0  0  0  0  0  0  0  0  0  0  0
   21.1087   17.7714   24.1997 C   0  0  0  0  0  0  0  0  0  0  0  0
   21.9284   17.1139   24.5005 H   0  0  0  0  0  0  0  0  0  0  0  0
   21.1077   18.6375   24.8656 H   0  0  0  0  0  0  0  0  0  0  0  0
   21.3299   18.2318   22.7439 C   0  0  0  0  0  0  0  0  0  0  0  0
   22.3088   18.7248   22.6760 H   0  0  0  0  0  0  0  0  0  0  0  0
   21.3871   17.3488   22.0937 H   0  0  0  0  0  0  0  0  0  0  0  0
   20.2370   19.1914   22.2082 C   0  0  0  0  0  0  0  0  0  0  0  0
   19.2657   18.6797   22.1890 H   0  0  0  0  0  0  0  0  0  0  0  0
   20.4766   19.4295   21.1638 H   0  0  0  0  0  0  0  0  0  0  0  0
   20.1224   20.5035   23.0257 C   0  0  0  0  0  0  0  0  0  0  0  0
   19.9061   20.2659   24.0755 H   0  0  0  0  0  0  0  0  0  0  0  0
   21.0876   21.0284   23.0205 H   0  0  0  0  0  0  0  0  0  0  0  0
   19.0149   21.4552   22.5114 C   0  0  0  0  0  0  0  0  0  0  0  0
   18.9238   22.2987   23.2101 H   0  0  0  0  0  0  0  0  0  0  0  0
   18.0446   20.9394   22.5256 H   0  0  0  0  0  0  0  0  0  0  0  0
   19.2877   22.0117   21.0952 C   0  0  0  0  0  0  0  0  0  0  0  0
   19.2621   21.2190   20.3374 H   0  0  0  0  0  0  0  0  0  0  0  0
   20.2676   22.5039   21.0460 H   0  0  0  0  0  0  0  0  0  0  0  0
   18.5262   22.7532   20.8210 H   0  0  0  0  0  0  0  0  0  0  0  0
   19.6840   16.6082   25.8750 C   0  0  0  0  0  0  0  0  0  0  0  0
   18.7459   16.0665   26.0151 H   0  0  0  0  0  0  0  0  0  0  0  0
   20.5250   15.9650   26.1431 H   0  0  0  0  0  0  0  0  0  0  0  0
   19.6895   17.5042   26.4997 H   0  0  0  0  0  0  0  0  0  0  0  0
  1  2  1  0  0  0  0
  1  3  1  0  0  0  0
  1  4  1  0  0  0  0
  4  5  1  0  0  0  0
  4  6  1  0  0  0  0
  4  7  1  0  0  0  0
  7  8  1  0  0  0  0
  7  9  1  0  0  0  0
  7 10  1  0  0  0  0
 10 11  1  0  0  0  0
 10 12  1  0  0  0  0
 10 13  1  0  0  0  0
 13 14  1  0  0  0  0
 13 15  1  0  0  0  0
 13 16  1  0  0  0  0
 16 17  1  0  0  0  0
 16 18  1  0  0  0  0
 16 19  1  0  0  0  0
 19 20  1  0  0  0  0
 19 21  1  0  0  0  0
 19 22  1  0  0  0  0
  1 23  1  0  0  0  0
 23 24  1  0  0  0  0
 23 25  1  0  0  0  0
 23 26  1  0  0  0  0
M  END
> <VConfSearch Rank>
93

> <Conf_Id>
126

> <Delta U+W>
1.519

> <U+W>
23.361

> <U>
72.579

> <W>
-49.218

> <W(PB)>
-51.496

> <W(SA)>
2.279

> <Valence>
2.678

> <Coulomb>
69.622

> <VdW>
0.279

> <VdW6>
-7.328

> <VdW12>
7.608

> <Bond>
0.212

> <Angle>
0.911

> <Pdih>
1.555

> <Idih>
0.000

> <Tether>
0.000

$$$$
VeraChem MOL file


 26 25  0  0  0  0  0  0  0  0999 V2000     
   19.6695   17.3444   21.7118 N   0  3  0  0  0  0  0  0  0  0  0  0
   19.0814   17.5194   22.5405 H   0  0  0  0  0  0  0  0  0  0  0  0
   20.1729   16.4657   21.9097 H   0  0  0  0  0  0  0  0  0  0  0  0
   20.6563   18.4807   21.5282 C   0  0  0  0  0  0  0  0  0  0  0  0
   20.0878   19.3896   21.3179 H   0  0  0  0  0  0  0  0  0  0  0  0
   21.2653   18.2515   20.6500 H   0  0  0  0  0  0  0  0  0  0  0  0
   21.5776   18.7102   22.7443 C   0  0  0  0  0  0  0  0  0  0  0  0
   22.1849   17.8102   22.9084 H   0  0  0  0  0  0  0  0  0  0  0  0
   22.2843   19.5153   22.5029 H   0  0  0  0  0  0  0  0  0  0  0  0
   20.8262   19.0658   24.0523 C   0  0  0  0  0  0  0  0  0  0  0  0
   21.5702   19.1774   24.8516 H   0  0  0  0  0  0  0  0  0  0  0  0
   20.1798   18.2303   24.3521 H   0  0  0  0  0  0  0  0  0  0  0  0
   19.9869   20.3643   23.9407 C   0  0  0  0  0  0  0  0  0  0  0  0
   20.6398   21.2049   23.6683 H   0  0  0  0  0  0  0  0  0  0  0  0
   19.2580   20.2631   23.1258 H   0  0  0  0  0  0  0  0  0  0  0  0
   19.2129   20.7110   25.2359 C   0  0  0  0  0  0  0  0  0  0  0  0
   18.5487   19.8785   25.5069 H   0  0  0  0  0  0  0  0  0  0  0  0
   18.5595   21.5716   25.0353 H   0  0  0  0  0  0  0  0  0  0  0  0
   20.1316   21.0539   26.4310 C   0  0  0  0  0  0  0  0  0  0  0  0
   20.8287   21.8621   26.1744 H   0  0  0  0  0  0  0  0  0  0  0  0
   20.7167   20.1840   26.7538 H   0  0  0  0  0  0  0  0  0  0  0  0
   19.5352   21.3861   27.2905 H   0  0  0  0  0  0  0  0  0  0  0  0
   18.8075   17.1992   20.4656 C   0  0  0  0  0  0  0  0  0  0  0  0
   18.2617   18.1299   20.2959 H   0  0  0  0  0  0  0  0  0  0  0  0
   19.4493   16.9849   19.6082 H   0  0  0  0  0  0  0  0  0  0  0  0
   18.1014   16.3787   20.6119 H   0  0  0  0  0  0  0  0  0  0  0  0
  1  2  1  0  0  0  0
  1  3  1  0  0  0  0
  1  4  1  0  0  0  0
  4  5  1  0  0  0  0
  4  6  1  0  0  0  0
  4  7  1  0  0  0  0
  7  8  1  0  0  0  0
  7  9  1  0  0  0  0
  7 10  1  0  0  0  0
 10 11  1  0  0  0  0
 10 12  1  0  0  0  0
 10 13  1  0  0  0  0
 13 14  1  0  0  0  0
 13 15  1  0  0  0  0
 13 16  1  0  0  0  0
 16 17  1  0  0  0  0
 16 18  1  0  0  0  0
 16 19  1  0  0  0  0
 19 20  1  0  0  0  0
 19 21  1  0  0  0  0
 19 22  1  0  0  0  0
  1 23  1  0  0  0  0
 23 24  1  0  0  0  0
 23 25  1  0  0  0  0
 23 26  1  0  0  0  0
M  END
> <VConfSearch Rank>
94

> <Conf_Id>
134

> <Delta U+W>
1.464

> <U+W>
23.306

> <U>
72.579

> <W>
-49.273

> <W(PB)>
-51.540

> <W(SA)>
2.267

> <Valence>
2.677

> <Coulomb>
69.622

> <VdW>
0.280

> <VdW6>
-7.328

> <VdW12>
7.608

> <Bond>
0.212

> <Angle>
0.911

> <Pdih>
1.555

> <Idih>
0.000

> <Tether>
0.000

$$$$
VeraChem MOL file


 26 25  0  0  0  0  0  0  0  0999 V2000     
   22.0286   18.7726   25.3463 N   0  3  0  0  0  0  0  0  0  0  0  0
   21.8581   19.7701   25.5478 H   0  0  0  0  0  0  0  0  0  0  0  0
   22.8995   18.7490   24.7933 H   0  0  0  0  0  0  0  0  0  0  0  0
   20.8814   18.1983   24.5395 C   0  0  0  0  0  0  0  0  0  0  0  0
   19.9799   18.2488   25.1554 H   0  0  0  0  0  0  0  0  0  0  0  0
   21.1045   17.1470   24.3410 H   0  0  0  0  0  0  0  0  0  0  0  0
   20.6421   18.9369   23.2102 C   0  0  0  0  0  0  0  0  0  0  0  0
   20.4375   19.9942   23.4206 H   0  0  0  0  0  0  0  0  0  0  0  0
   21.5549   18.8976   22.6010 H   0  0  0  0  0  0  0  0  0  0  0  0
   19.4644   18.3144   22.4242 C   0  0  0  0  0  0  0  0  0  0  0  0
   18.5423   18.3882   23.0162 H   0  0  0  0  0  0  0  0  0  0  0  0
   19.6522   17.2397   22.2922 H   0  0  0  0  0  0  0  0  0  0  0  0
   19.2477   18.9474   21.0251 C   0  0  0  0  0  0  0  0  0  0  0  0
   20.1386   18.7647   20.4084 H   0  0  0  0  0  0  0  0  0  0  0  0
   18.4235   18.4211   20.5242 H   0  0  0  0  0  0  0  0  0  0  0  0
   18.9440   20.4676   21.0252 C   0  0  0  0  0  0  0  0  0  0  0  0
   18.8117   20.7974   19.9852 H   0  0  0  0  0  0  0  0  0  0  0  0
   19.8072   21.0277   21.4091 H   0  0  0  0  0  0  0  0  0  0  0  0
   17.6788   20.8422   21.8302 C   0  0  0  0  0  0  0  0  0  0  0  0
   16.8050   20.2799   21.4763 H   0  0  0  0  0  0  0  0  0  0  0  0
   17.4564   21.9116   21.7213 H   0  0  0  0  0  0  0  0  0  0  0  0
   17.8082   20.6395   22.9006 H   0  0  0  0  0  0  0  0  0  0  0  0
   22.1961   17.9876   26.6399 C   0  0  0  0  0  0  0  0  0  0  0  0
   22.4082   16.9430   26.4013 H   0  0  0  0  0  0  0  0  0  0  0  0
   23.0251   18.4111   27.2112 H   0  0  0  0  0  0  0  0  0  0  0  0
   21.2746   18.0544   27.2225 H   0  0  0  0  0  0  0  0  0  0  0  0
  1  2  1  0  0  0  0
  1  3  1  0  0  0  0
  1  4  1  0  0  0  0
  4  5  1  0  0  0  0
  4  6  1  0  0  0  0
  4  7  1  0  0  0  0
  7  8  1  0  0  0  0
  7  9  1  0  0  0  0
  7 10  1  0  0  0  0
 10 11  1  0  0  0  0
 10 12  1  0  0  0  0
 10 13  1  0  0  0  0
 13 14  1  0  0  0  0
 13 15  1  0  0  0  0
 13 16  1  0  0  0  0
 16 17  1  0  0  0  0
 16 18  1  0  0  0  0
 16 19  1  0  0  0  0
 19 20  1  0  0  0  0
 19 21  1  0  0  0  0
 19 22  1  0  0  0  0
  1 23  1  0  0  0  0
 23 24  1  0  0  0  0
 23 25  1  0  0  0  0
 23 26  1  0  0  0  0
M  END
> <VConfSearch Rank>
95

> <Conf_Id>
30

> <Delta U+W>
0.910

> <U+W>
22.752

> <U>
71.870

> <W>
-49.118

> <W(PB)>
-51.409

> <W(SA)>
2.290

> <Valence>
2.682

> <Coulomb>
68.933

> <VdW>
0.255

> <VdW6>
-6.833

> <VdW12>
7.088

> <Bond>
0.205

> <Angle>
1.003

> <Pdih>
1.473

> <Idih>
0.000

> <Tether>
0.000

$$$$
VeraChem MOL file


 26 25  0  0  0  0  0  0  0  0999 V2000     
   20.6425   16.3515   23.2340 N   0  3  0  0  0  0  0  0  0  0  0  0
   21.2394   16.3198   22.3929 H   0  0  0  0  0  0  0  0  0  0  0  0
   19.6789   16.2117   22.8924 H   0  0  0  0  0  0  0  0  0  0  0  0
   20.7665   17.7009   23.9125 C   0  0  0  0  0  0  0  0  0  0  0  0
   21.7998   17.8123   24.2507 H   0  0  0  0  0  0  0  0  0  0  0  0
   20.1155   17.6960   24.7904 H   0  0  0  0  0  0  0  0  0  0  0  0
   20.3914   18.8799   22.9965 C   0  0  0  0  0  0  0  0  0  0  0  0
   21.0370   18.8721   22.1082 H   0  0  0  0  0  0  0  0  0  0  0  0
   19.3590   18.7478   22.6487 H   0  0  0  0  0  0  0  0  0  0  0  0
   20.5347   20.2327   23.7325 C   0  0  0  0  0  0  0  0  0  0  0  0
   21.5522   20.3107   24.1403 H   0  0  0  0  0  0  0  0  0  0  0  0
   19.8606   20.2574   24.5991 H   0  0  0  0  0  0  0  0  0  0  0  0
   20.2767   21.4638   22.8254 C   0  0  0  0  0  0  0  0  0  0  0  0
   20.4390   22.3763   23.4155 H   0  0  0  0  0  0  0  0  0  0  0  0
   21.0321   21.4845   22.0278 H   0  0  0  0  0  0  0  0  0  0  0  0
   18.8683   21.5286   22.1807 C   0  0  0  0  0  0  0  0  0  0  0  0
   18.7286   20.6883   21.4875 H   0  0  0  0  0  0  0  0  0  0  0  0
   18.8072   22.4373   21.5657 H   0  0  0  0  0  0  0  0  0  0  0  0
   17.7190   21.5495   23.2140 C   0  0  0  0  0  0  0  0  0  0  0  0
   17.6654   20.6084   23.7754 H   0  0  0  0  0  0  0  0  0  0  0  0
   16.7530   21.6897   22.7120 H   0  0  0  0  0  0  0  0  0  0  0  0
   17.8474   22.3711   23.9305 H   0  0  0  0  0  0  0  0  0  0  0  0
   21.0301   15.2455   24.2058 C   0  0  0  0  0  0  0  0  0  0  0  0
   20.9366   14.2794   23.7048 H   0  0  0  0  0  0  0  0  0  0  0  0
   22.0630   15.3957   24.5274 H   0  0  0  0  0  0  0  0  0  0  0  0
   20.3645   15.2782   25.0712 H   0  0  0  0  0  0  0  0  0  0  0  0
  1  2  1  0  0  0  0
  1  3  1  0  0  0  0
  1  4  1  0  0  0  0
  4  5  1  0  0  0  0
  4  6  1  0  0  0  0
  4  7  1  0  0  0  0
  7  8  1  0  0  0  0
  7  9  1  0  0  0  0
  7 10  1  0  0  0  0
 10 11  1  0  0  0  0
 10 12  1  0  0  0  0
 10 13  1  0  0  0  0
 13 14  1  0  0  0  0
 13 15  1  0  0  0  0
 13 16  1  0  0  0  0
 16 17  1  0  0  0  0
 16 18  1  0  0  0  0
 16 19  1  0  0  0  0
 19 20  1  0  0  0  0
 19 21  1  0  0  0  0
 19 22  1  0  0  0  0
  1 23  1  0  0  0  0
 23 24  1  0  0  0  0
 23 25  1  0  0  0  0
 23 26  1  0  0  0  0
M  END
> <VConfSearch Rank>
96

> <Conf_Id>
29

> <Delta U+W>
0.886

> <U+W>
22.729

> <U>
71.870

> <W>
-49.141

> <W(PB)>
-51.404

> <W(SA)>
2.262

> <Valence>
2.682

> <Coulomb>
68.933

> <VdW>
0.255

> <VdW6>
-6.833

> <VdW12>
7.088

> <Bond>
0.205

> <Angle>
1.003

> <Pdih>
1.473

> <Idih>
0.000

> <Tether>
0.000

$$$$
VeraChem MOL file


 26 25  0  0  0  0  0  0  0  0999 V2000     
   19.9794   21.7044   23.0790 N   0  3  0  0  0  0  0  0  0  0  0  0
   19.1329   22.1199   22.6602 H   0  0  0  0  0  0  0  0  0  0  0  0
   20.6330   21.5621   22.2934 H   0  0  0  0  0  0  0  0  0  0  0  0
   19.6439   20.3767   23.7278 C   0  0  0  0  0  0  0  0  0  0  0  0
   18.9422   20.5691   24.5433 H   0  0  0  0  0  0  0  0  0  0  0  0
   20.5649   19.9717   24.1537 H   0  0  0  0  0  0  0  0  0  0  0  0
   19.0326   19.3570   22.7481 C   0  0  0  0  0  0  0  0  0  0  0  0
   18.1278   19.7875   22.2991 H   0  0  0  0  0  0  0  0  0  0  0  0
   19.7302   19.1744   21.9208 H   0  0  0  0  0  0  0  0  0  0  0  0
   18.6624   18.0183   23.4337 C   0  0  0  0  0  0  0  0  0  0  0  0
   18.2166   17.3450   22.6894 H   0  0  0  0  0  0  0  0  0  0  0  0
   17.8722   18.2054   24.1738 H   0  0  0  0  0  0  0  0  0  0  0  0
   19.8433   17.3004   24.1416 C   0  0  0  0  0  0  0  0  0  0  0  0
   20.1789   17.9047   24.9952 H   0  0  0  0  0  0  0  0  0  0  0  0
   19.4736   16.3604   24.5739 H   0  0  0  0  0  0  0  0  0  0  0  0
   21.0632   16.9889   23.2376 C   0  0  0  0  0  0  0  0  0  0  0  0
   21.8336   16.4958   23.8468 H   0  0  0  0  0  0  0  0  0  0  0  0
   21.5173   17.9217   22.8773 H   0  0  0  0  0  0  0  0  0  0  0  0
   20.7200   16.0778   22.0372 C   0  0  0  0  0  0  0  0  0  0  0  0
   21.6288   15.8181   21.4791 H   0  0  0  0  0  0  0  0  0  0  0  0
   20.0338   16.5731   21.3390 H   0  0  0  0  0  0  0  0  0  0  0  0
   20.2533   15.1426   22.3726 H   0  0  0  0  0  0  0  0  0  0  0  0
   20.5824   22.6471   24.1112 C   0  0  0  0  0  0  0  0  0  0  0  0
   20.8192   23.5994   23.6315 H   0  0  0  0  0  0  0  0  0  0  0  0
   19.8608   22.8084   24.9151 H   0  0  0  0  0  0  0  0  0  0  0  0
   21.4937   22.2012   24.5158 H   0  0  0  0  0  0  0  0  0  0  0  0
  1  2  1  0  0  0  0
  1  3  1  0  0  0  0
  1  4  1  0  0  0  0
  4  5  1  0  0  0  0
  4  6  1  0  0  0  0
  4  7  1  0  0  0  0
  7  8  1  0  0  0  0
  7  9  1  0  0  0  0
  7 10  1  0  0  0  0
 10 11  1  0  0  0  0
 10 12  1  0  0  0  0
 10 13  1  0  0  0  0
 13 14  1  0  0  0  0
 13 15  1  0  0  0  0
 13 16  1  0  0  0  0
 16 17  1  0  0  0  0
 16 18  1  0  0  0  0
 16 19  1  0  0  0  0
 19 20  1  0  0  0  0
 19 21  1  0  0  0  0
 19 22  1  0  0  0  0
  1 23  1  0  0  0  0
 23 24  1  0  0  0  0
 23 25  1  0  0  0  0
 23 26  1  0  0  0  0
M  END
> <VConfSearch Rank>
97

> <Conf_Id>
82

> <Delta U+W>
1.026

> <U+W>
22.868

> <U>
72.455

> <W>
-49.586

> <W(PB)>
-51.821

> <W(SA)>
2.234

> <Valence>
2.908

> <Coulomb>
69.435

> <VdW>
0.112

> <VdW6>
-7.765

> <VdW12>
7.877

> <Bond>
0.233

> <Angle>
1.170

> <Pdih>
1.506

> <Idih>
0.000

> <Tether>
0.000

$$$$
VeraChem MOL file


 26 25  0  0  0  0  0  0  0  0999 V2000     
   19.9743   16.4962   22.8531 N   0  3  0  0  0  0  0  0  0  0  0  0
   20.4787   16.7038   21.9773 H   0  0  0  0  0  0  0  0  0  0  0  0
   19.0541   16.1323   22.5604 H   0  0  0  0  0  0  0  0  0  0  0  0
   19.8006   17.7609   23.6695 C   0  0  0  0  0  0  0  0  0  0  0  0
   20.7949   18.1128   23.9545 H   0  0  0  0  0  0  0  0  0  0  0  0
   19.2528   17.5012   24.5788 H   0  0  0  0  0  0  0  0  0  0  0  0
   19.0522   18.8757   22.9143 C   0  0  0  0  0  0  0  0  0  0  0  0
   19.5935   19.1267   21.9933 H   0  0  0  0  0  0  0  0  0  0  0  0
   18.0688   18.5005   22.6014 H   0  0  0  0  0  0  0  0  0  0  0  0
   18.8514   20.1485   23.7740 C   0  0  0  0  0  0  0  0  0  0  0  0
   18.2030   19.9023   24.6262 H   0  0  0  0  0  0  0  0  0  0  0  0
   18.2982   20.8943   23.1877 H   0  0  0  0  0  0  0  0  0  0  0  0
   20.1615   20.7819   24.3160 C   0  0  0  0  0  0  0  0  0  0  0  0
   19.9037   21.6816   24.8915 H   0  0  0  0  0  0  0  0  0  0  0  0
   20.6279   20.0959   25.0358 H   0  0  0  0  0  0  0  0  0  0  0  0
   21.2064   21.1618   23.2360 C   0  0  0  0  0  0  0  0  0  0  0  0
   21.5602   20.2615   22.7161 H   0  0  0  0  0  0  0  0  0  0  0  0
   22.0883   21.5859   23.7361 H   0  0  0  0  0  0  0  0  0  0  0  0
   20.6786   22.1860   22.2058 C   0  0  0  0  0  0  0  0  0  0  0  0
   19.8632   21.7672   21.6031 H   0  0  0  0  0  0  0  0  0  0  0  0
   21.4787   22.4856   21.5166 H   0  0  0  0  0  0  0  0  0  0  0  0
   20.3081   23.0913   22.7038 H   0  0  0  0  0  0  0  0  0  0  0  0
   20.7263   15.4532   23.6681 C   0  0  0  0  0  0  0  0  0  0  0  0
   20.1577   15.2258   24.5725 H   0  0  0  0  0  0  0  0  0  0  0  0
   20.8444   14.5475   23.0691 H   0  0  0  0  0  0  0  0  0  0  0  0
   21.7085   15.8478   23.9377 H   0  0  0  0  0  0  0  0  0  0  0  0
  1  2  1  0  0  0  0
  1  3  1  0  0  0  0
  1  4  1  0  0  0  0
  4  5  1  0  0  0  0
  4  6  1  0  0  0  0
  4  7  1  0  0  0  0
  7  8  1  0  0  0  0
  7  9  1  0  0  0  0
  7 10  1  0  0  0  0
 10 11  1  0  0  0  0
 10 12  1  0  0  0  0
 10 13  1  0  0  0  0
 13 14  1  0  0  0  0
 13 15  1  0  0  0  0
 13 16  1  0  0  0  0
 16 17  1  0  0  0  0
 16 18  1  0  0  0  0
 16 19  1  0  0  0  0
 19 20  1  0  0  0  0
 19 21  1  0  0  0  0
 19 22  1  0  0  0  0
  1 23  1  0  0  0  0
 23 24  1  0  0  0  0
 23 25  1  0  0  0  0
 23 26  1  0  0  0  0
M  END
> <VConfSearch Rank>
98

> <Conf_Id>
71

> <Delta U+W>
1.096

> <U+W>
22.938

> <U>
72.455

> <W>
-49.517

> <W(PB)>
-51.795

> <W(SA)>
2.278

> <Valence>
2.908

> <Coulomb>
69.435

> <VdW>
0.112

> <VdW6>
-7.766

> <VdW12>
7.877

> <Bond>
0.233

> <Angle>
1.170

> <Pdih>
1.506

> <Idih>
0.000

> <Tether>
0.000

$$$$
VeraChem MOL file


 26 25  0  0  0  0  0  0  0  0999 V2000     
   18.6051   18.7859   25.2490 N   0  3  0  0  0  0  0  0  0  0  0  0
   18.2350   19.0267   24.3174 H   0  0  0  0  0  0  0  0  0  0  0  0
   18.0862   19.3863   25.9094 H   0  0  0  0  0  0  0  0  0  0  0  0
   20.0883   19.1131   25.3189 C   0  0  0  0  0  0  0  0  0  0  0  0
   20.4447   18.8268   26.3116 H   0  0  0  0  0  0  0  0  0  0  0  0
   20.1880   20.1974   25.2284 H   0  0  0  0  0  0  0  0  0  0  0  0
   20.9619   18.4334   24.2401 C   0  0  0  0  0  0  0  0  0  0  0  0
   22.0041   18.7474   24.3844 H   0  0  0  0  0  0  0  0  0  0  0  0
   20.9508   17.3468   24.3952 H   0  0  0  0  0  0  0  0  0  0  0  0
   20.5315   18.7460   22.7847 C   0  0  0  0  0  0  0  0  0  0  0  0
   19.5175   18.3643   22.6056 H   0  0  0  0  0  0  0  0  0  0  0  0
   21.1914   18.1881   22.1078 H   0  0  0  0  0  0  0  0  0  0  0  0
   20.5936   20.2562   22.4407 C   0  0  0  0  0  0  0  0  0  0  0  0
   19.9573   20.8193   23.1359 H   0  0  0  0  0  0  0  0  0  0  0  0
   21.6169   20.6276   22.5892 H   0  0  0  0  0  0  0  0  0  0  0  0
   20.1319   20.5789   20.9986 C   0  0  0  0  0  0  0  0  0  0  0  0
   20.0977   21.6706   20.8764 H   0  0  0  0  0  0  0  0  0  0  0  0
   19.1037   20.2212   20.8480 H   0  0  0  0  0  0  0  0  0  0  0  0
   21.0537   19.9864   19.9083 C   0  0  0  0  0  0  0  0  0  0  0  0
   21.0241   18.8898   19.9060 H   0  0  0  0  0  0  0  0  0  0  0  0
   22.0944   20.3027   20.0559 H   0  0  0  0  0  0  0  0  0  0  0  0
   20.7383   20.3257   18.9131 H   0  0  0  0  0  0  0  0  0  0  0  0
   18.3487   17.3181   25.5700 C   0  0  0  0  0  0  0  0  0  0  0  0
   17.2736   17.1280   25.5398 H   0  0  0  0  0  0  0  0  0  0  0  0
   18.8531   16.6935   24.8299 H   0  0  0  0  0  0  0  0  0  0  0  0
   18.7347   17.0965   26.5673 H   0  0  0  0  0  0  0  0  0  0  0  0
  1  2  1  0  0  0  0
  1  3  1  0  0  0  0
  1  4  1  0  0  0  0
  4  5  1  0  0  0  0
  4  6  1  0  0  0  0
  4  7  1  0  0  0  0
  7  8  1  0  0  0  0
  7  9  1  0  0  0  0
  7 10  1  0  0  0  0
 10 11  1  0  0  0  0
 10 12  1  0  0  0  0
 10 13  1  0  0  0  0
 13 14  1  0  0  0  0
 13 15  1  0  0  0  0
 13 16  1  0  0  0  0
 16 17  1  0  0  0  0
 16 18  1  0  0  0  0
 16 19  1  0  0  0  0
 19 20  1  0  0  0  0
 19 21  1  0  0  0  0
 19 22  1  0  0  0  0
  1 23  1  0  0  0  0
 23 24  1  0  0  0  0
 23 25  1  0  0  0  0
 23 26  1  0  0  0  0
M  END
> <VConfSearch Rank>
99

> <Conf_Id>
84

> <Delta U+W>
1.456

> <U+W>
23.298

> <U>
73.042

> <W>
-49.744

> <W(PB)>
-51.966

> <W(SA)>
2.222

> <Valence>
2.938

> <Coulomb>
69.625

> <VdW>
0.478

> <VdW6>
-8.182

> <VdW12>
8.660

> <Bond>
0.253

> <Angle>
1.038

> <Pdih>
1.647

> <Idih>
0.000

> <Tether>
0.000

$$$$
VeraChem MOL file


 26 25  0  0  0  0  0  0  0  0999 V2000     
   19.4883   19.8057   21.0537 N   0  3  0  0  0  0  0  0  0  0  0  0
   18.8505   19.2541   21.6471 H   0  0  0  0  0  0  0  0  0  0  0  0
   19.6720   19.2197   20.2246 H   0  0  0  0  0  0  0  0  0  0  0  0
   20.7815   20.0777   21.7969 C   0  0  0  0  0  0  0  0  0  0  0  0
   20.5475   20.7018   22.6626 H   0  0  0  0  0  0  0  0  0  0  0  0
   21.4317   20.6511   21.1312 H   0  0  0  0  0  0  0  0  0  0  0  0
   21.5169   18.8019   22.2572 C   0  0  0  0  0  0  0  0  0  0  0  0
   21.7935   18.2084   21.3757 H   0  0  0  0  0  0  0  0  0  0  0  0
   22.4605   19.0942   22.7368 H   0  0  0  0  0  0  0  0  0  0  0  0
   20.6997   17.9192   23.2340 C   0  0  0  0  0  0  0  0  0  0  0  0
   21.3004   17.0358   23.4915 H   0  0  0  0  0  0  0  0  0  0  0  0
   19.8002   17.5389   22.7317 H   0  0  0  0  0  0  0  0  0  0  0  0
   20.3004   18.6575   24.5346 C   0  0  0  0  0  0  0  0  0  0  0  0
   21.2012   19.0567   25.0211 H   0  0  0  0  0  0  0  0  0  0  0  0
   19.6594   19.5172   24.2981 H   0  0  0  0  0  0  0  0  0  0  0  0
   19.5553   17.7269   25.5173 C   0  0  0  0  0  0  0  0  0  0  0  0
   20.1918   16.8671   25.7699 H   0  0  0  0  0  0  0  0  0  0  0  0
   18.6541   17.3228   25.0352 H   0  0  0  0  0  0  0  0  0  0  0  0
   19.1554   18.4651   26.8127 C   0  0  0  0  0  0  0  0  0  0  0  0
   20.0396   18.8520   27.3357 H   0  0  0  0  0  0  0  0  0  0  0  0
   18.6285   17.7882   27.4977 H   0  0  0  0  0  0  0  0  0  0  0  0
   18.4892   19.3104   26.5961 H   0  0  0  0  0  0  0  0  0  0  0  0
   18.8373   21.1203   20.6471 C   0  0  0  0  0  0  0  0  0  0  0  0
   19.5188   21.6719   19.9958 H   0  0  0  0  0  0  0  0  0  0  0  0
   17.9073   20.9098   20.1142 H   0  0  0  0  0  0  0  0  0  0  0  0
   18.6244   21.7079   21.5428 H   0  0  0  0  0  0  0  0  0  0  0  0
  1  2  1  0  0  0  0
  1  3  1  0  0  0  0
  1  4  1  0  0  0  0
  4  5  1  0  0  0  0
  4  6  1  0  0  0  0
  4  7  1  0  0  0  0
  7  8  1  0  0  0  0
  7  9  1  0  0  0  0
  7 10  1  0  0  0  0
 10 11  1  0  0  0  0
 10 12  1  0  0  0  0
 10 13  1  0  0  0  0
 13 14  1  0  0  0  0
 13 15  1  0  0  0  0
 13 16  1  0  0  0  0
 16 17  1  0  0  0  0
 16 18  1  0  0  0  0
 16 19  1  0  0  0  0
 19 20  1  0  0  0  0
 19 21  1  0  0  0  0
 19 22  1  0  0  0  0
  1 23  1  0  0  0  0
 23 24  1  0  0  0  0
 23 25  1  0  0  0  0
 23 26  1  0  0  0  0
M  END
> <VConfSearch Rank>
100

> <Conf_Id>
73

> <Delta U+W>
0.884

> <U+W>
22.726

> <U>
71.905

> <W>
-49.179

> <W(PB)>
-51.494

> <W(SA)>
2.315

> <Valence>
2.125

> <Coulomb>
69.686

> <VdW>
0.093

> <VdW6>
-6.766

> <VdW12>
6.859

> <Bond>
0.169

> <Angle>
0.621

> <Pdih>
1.336

> <Idih>
0.000

> <Tether>
0.000

$$$$
VeraChem MOL file


 26 25  0  0  0  0  0  0  0  0999 V2000     
   19.0179   19.1412   26.3489 N   0  3  0  0  0  0  0  0  0  0  0  0
   18.4578   18.2767   26.2878 H   0  0  0  0  0  0  0  0  0  0  0  0
   18.3461   19.9133   26.2165 H   0  0  0  0  0  0  0  0  0  0  0  0
   20.0645   19.1649   25.2531 C   0  0  0  0  0  0  0  0  0  0  0  0
   20.7485   18.3299   25.4246 H   0  0  0  0  0  0  0  0  0  0  0  0
   20.6280   20.0966   25.3477 H   0  0  0  0  0  0  0  0  0  0  0  0
   19.4667   19.0626   23.8381 C   0  0  0  0  0  0  0  0  0  0  0  0
   18.8878   18.1333   23.7526 H   0  0  0  0  0  0  0  0  0  0  0  0
   18.7678   19.8941   23.6761 H   0  0  0  0  0  0  0  0  0  0  0  0
   20.5685   19.0907   22.7556 C   0  0  0  0  0  0  0  0  0  0  0  0
   21.2688   18.2606   22.9243 H   0  0  0  0  0  0  0  0  0  0  0  0
   21.1490   20.0194   22.8480 H   0  0  0  0  0  0  0  0  0  0  0  0
   19.9798   18.9888   21.3300 C   0  0  0  0  0  0  0  0  0  0  0  0
   19.3995   18.0603   21.2374 H   0  0  0  0  0  0  0  0  0  0  0  0
   19.2797   19.8188   21.1611 H   0  0  0  0  0  0  0  0  0  0  0  0
   21.0821   19.0169   20.2476 C   0  0  0  0  0  0  0  0  0  0  0  0
   21.7838   18.1869   20.4108 H   0  0  0  0  0  0  0  0  0  0  0  0
   21.6640   19.9453   20.3344 H   0  0  0  0  0  0  0  0  0  0  0  0
   20.4905   18.9149   18.8255 C   0  0  0  0  0  0  0  0  0  0  0  0
   21.2879   18.9365   18.0714 H   0  0  0  0  0  0  0  0  0  0  0  0
   19.8100   19.7514   18.6198 H   0  0  0  0  0  0  0  0  0  0  0  0
   19.9307   17.9793   18.6967 H   0  0  0  0  0  0  0  0  0  0  0  0
   19.6908   19.2464   27.7105 C   0  0  0  0  0  0  0  0  0  0  0  0
   20.2495   20.1835   27.7636 H   0  0  0  0  0  0  0  0  0  0  0  0
   18.9262   19.2281   28.4904 H   0  0  0  0  0  0  0  0  0  0  0  0
   20.3711   18.4020   27.8412 H   0  0  0  0  0  0  0  0  0  0  0  0
  1  2  1  0  0  0  0
  1  3  1  0  0  0  0
  1  4  1  0  0  0  0
  4  5  1  0  0  0  0
  4  6  1  0  0  0  0
  4  7  1  0  0  0  0
  7  8  1  0  0  0  0
  7  9  1  0  0  0  0
  7 10  1  0  0  0  0
 10 11  1  0  0  0  0
 10 12  1  0  0  0  0
 10 13  1  0  0  0  0
 13 14  1  0  0  0  0
 13 15  1  0  0  0  0
 13 16  1  0  0  0  0
 16 17  1  0  0  0  0
 16 18  1  0  0  0  0
 16 19  1  0  0  0  0
 19 20  1  0  0  0  0
 19 21  1  0  0  0  0
 19 22  1  0  0  0  0
  1 23  1  0  0  0  0
 23 24  1  0  0  0  0
 23 25  1  0  0  0  0
 23 26  1  0  0  0  0
M  END
> <VConfSearch Rank>
101

> <Conf_Id>
11

> <Delta U+W>
0.000

> <U+W>
21.842

> <U>
70.357

> <W>
-48.515

> <W(PB)>
-50.856

> <W(SA)>
2.341

> <Valence>
1.714

> <Coulomb>
68.480

> <VdW>
0.163

> <VdW6>
-5.268

> <VdW12>
5.431

> <Bond>
0.126

> <Angle>
0.350

> <Pdih>
1.238

> <Idih>
0.000

> <Tether>
0.000

$$$$
VeraChem MOL file


 26 25  0  0  0  0  0  0  0  0999 V2000     
   16.7126   19.1459   22.4803 N   0  3  0  0  0  0  0  0  0  0  0  0
   16.1144   19.0305   21.6467 H   0  0  0  0  0  0  0  0  0  0  0  0
   16.5959   20.1331   22.7566 H   0  0  0  0  0  0  0  0  0  0  0  0
   18.1603   18.8717   22.1089 C   0  0  0  0  0  0  0  0  0  0  0  0
   18.3790   19.4494   21.2072 H   0  0  0  0  0  0  0  0  0  0  0  0
   18.2493   17.8109   21.8617 H   0  0  0  0  0  0  0  0  0  0  0  0
   19.1831   19.2432   23.2019 C   0  0  0  0  0  0  0  0  0  0  0  0
   19.0529   20.2977   23.4791 H   0  0  0  0  0  0  0  0  0  0  0  0
   18.9950   18.6474   24.1043 H   0  0  0  0  0  0  0  0  0  0  0  0
   20.6321   19.0069   22.7215 C   0  0  0  0  0  0  0  0  0  0  0  0
   20.8197   19.6020   21.8168 H   0  0  0  0  0  0  0  0  0  0  0  0
   20.7564   17.9521   22.4390 H   0  0  0  0  0  0  0  0  0  0  0  0
   21.6679   19.3768   23.8076 C   0  0  0  0  0  0  0  0  0  0  0  0
   21.5435   20.4314   24.0903 H   0  0  0  0  0  0  0  0  0  0  0  0
   21.4807   18.7816   24.7122 H   0  0  0  0  0  0  0  0  0  0  0  0
   23.1171   19.1403   23.3268 C   0  0  0  0  0  0  0  0  0  0  0  0
   23.3102   19.7356   22.4233 H   0  0  0  0  0  0  0  0  0  0  0  0
   23.2473   18.0859   23.0450 H   0  0  0  0  0  0  0  0  0  0  0  0
   24.1485   19.5107   24.4139 C   0  0  0  0  0  0  0  0  0  0  0  0
   25.1707   19.3360   24.0541 H   0  0  0  0  0  0  0  0  0  0  0  0
   24.0025   18.9068   25.3190 H   0  0  0  0  0  0  0  0  0  0  0  0
   24.0659   20.5694   24.6924 H   0  0  0  0  0  0  0  0  0  0  0  0
   16.2400   18.2126   23.5893 C   0  0  0  0  0  0  0  0  0  0  0  0
   16.8355   18.3873   24.4876 H   0  0  0  0  0  0  0  0  0  0  0  0
   15.1878   18.4145   23.8018 H   0  0  0  0  0  0  0  0  0  0  0  0
   16.3578   17.1775   23.2616 H   0  0  0  0  0  0  0  0  0  0  0  0
  1  2  1  0  0  0  0
  1  3  1  0  0  0  0
  1  4  1  0  0  0  0
  4  5  1  0  0  0  0
  4  6  1  0  0  0  0
  4  7  1  0  0  0  0
  7  8  1  0  0  0  0
  7  9  1  0  0  0  0
  7 10  1  0  0  0  0
 10 11  1  0  0  0  0
 10 12  1  0  0  0  0
 10 13  1  0  0  0  0
 13 14  1  0  0  0  0
 13 15  1  0  0  0  0
 13 16  1  0  0  0  0
 16 17  1  0  0  0  0
 16 18  1  0  0  0  0
 16 19  1  0  0  0  0
 19 20  1  0  0  0  0
 19 21  1  0  0  0  0
 19 22  1  0  0  0  0
  1 23  1  0  0  0  0
 23 24  1  0  0  0  0
 23 25  1  0  0  0  0
 23 26  1  0  0  0  0
M  END
> <VConfSearch Rank>
102

> <Conf_Id>
102

> <Delta U+W>
0.121

> <U+W>
21.963

> <U>
70.745

> <W>
-48.782

> <W(PB)>
-51.111

> <W(SA)>
2.329

> <Valence>
1.993

> <Coulomb>
68.323

> <VdW>
0.429

> <VdW6>
-5.973

> <VdW12>
6.402

> <Bond>
0.161

> <Angle>
0.472

> <Pdih>
1.360

> <Idih>
0.000

> <Tether>
0.000

$$$$
VeraChem MOL file


 26 25  0  0  0  0  0  0  0  0999 V2000     
   21.9360   18.1862   20.5600 N   0  3  0  0  0  0  0  0  0  0  0  0
   22.1053   19.1597   20.2631 H   0  0  0  0  0  0  0  0  0  0  0  0
   21.8103   17.6581   19.6817 H   0  0  0  0  0  0  0  0  0  0  0  0
   20.6654   18.1032   21.3893 C   0  0  0  0  0  0  0  0  0  0  0  0
   20.5436   17.0674   21.7159 H   0  0  0  0  0  0  0  0  0  0  0  0
   19.8303   18.3508   20.7291 H   0  0  0  0  0  0  0  0  0  0  0  0
   20.6349   19.0451   22.6101 C   0  0  0  0  0  0  0  0  0  0  0  0
   21.4504   18.7876   23.2983 H   0  0  0  0  0  0  0  0  0  0  0  0
   20.8075   20.0774   22.2779 H   0  0  0  0  0  0  0  0  0  0  0  0
   19.2848   18.9577   23.3558 C   0  0  0  0  0  0  0  0  0  0  0  0
   19.1128   17.9220   23.6808 H   0  0  0  0  0  0  0  0  0  0  0  0
   18.4683   19.2138   22.6662 H   0  0  0  0  0  0  0  0  0  0  0  0
   19.2405   19.8983   24.5816 C   0  0  0  0  0  0  0  0  0  0  0  0
   20.0566   19.6421   25.2713 H   0  0  0  0  0  0  0  0  0  0  0  0
   19.4128   20.9339   24.2567 H   0  0  0  0  0  0  0  0  0  0  0  0
   17.8900   19.8107   25.3271 C   0  0  0  0  0  0  0  0  0  0  0  0
   17.7140   18.7769   25.6561 H   0  0  0  0  0  0  0  0  0  0  0  0
   17.0703   20.0687   24.6419 H   0  0  0  0  0  0  0  0  0  0  0  0
   17.8496   20.7511   26.5505 C   0  0  0  0  0  0  0  0  0  0  0  0
   18.6372   20.4956   27.2713 H   0  0  0  0  0  0  0  0  0  0  0  0
   16.8836   20.6749   27.0664 H   0  0  0  0  0  0  0  0  0  0  0  0
   17.9885   21.7976   26.2491 H   0  0  0  0  0  0  0  0  0  0  0  0
   23.1337   17.6369   21.3270 C   0  0  0  0  0  0  0  0  0  0  0  0
   22.9335   16.6016   21.6113 H   0  0  0  0  0  0  0  0  0  0  0  0
   24.0176   17.6790   20.6867 H   0  0  0  0  0  0  0  0  0  0  0  0
   23.2993   18.2416   22.2209 H   0  0  0  0  0  0  0  0  0  0  0  0
  1  2  1  0  0  0  0
  1  3  1  0  0  0  0
  1  4  1  0  0  0  0
  4  5  1  0  0  0  0
  4  6  1  0  0  0  0
  4  7  1  0  0  0  0
  7  8  1  0  0  0  0
  7  9  1  0  0  0  0
  7 10  1  0  0  0  0
 10 11  1  0  0  0  0
 10 12  1  0  0  0  0
 10 13  1  0  0  0  0
 13 14  1  0  0  0  0
 13 15  1  0  0  0  0
 13 16  1  0  0  0  0
 16 17  1  0  0  0  0
 16 18  1  0  0  0  0
 16 19  1  0  0  0  0
 19 20  1  0  0  0  0
 19 21  1  0  0  0  0
 19 22  1  0  0  0  0
  1 23  1  0  0  0  0
 23 24  1  0  0  0  0
 23 25  1  0  0  0  0
 23 26  1  0  0  0  0
M  END
> <VConfSearch Rank>
103

> <Conf_Id>
37

> <Delta U+W>
0.125

> <U+W>
21.967

> <U>
70.745

> <W>
-48.778

> <W(PB)>
-51.115

> <W(SA)>
2.337

> <Valence>
1.993

> <Coulomb>
68.323

> <VdW>
0.429

> <VdW6>
-5.973

> <VdW12>
6.403

> <Bond>
0.161

> <Angle>
0.472

> <Pdih>
1.360

> <Idih>
0.000

> <Tether>
0.000

$$$$
VeraChem MOL file


 26 25  0  0  0  0  0  0  0  0999 V2000     
   17.8967   21.2415   23.0591 N   0  3  0  0  0  0  0  0  0  0  0  0
   17.1084   21.0388   23.6934 H   0  0  0  0  0  0  0  0  0  0  0  0
   17.5639   20.9842   22.1169 H   0  0  0  0  0  0  0  0  0  0  0  0
   19.1004   20.4016   23.4361 C   0  0  0  0  0  0  0  0  0  0  0  0
   19.4138   20.6965   24.4407 H   0  0  0  0  0  0  0  0  0  0  0  0
   19.9058   20.6435   22.7387 H   0  0  0  0  0  0  0  0  0  0  0  0
   18.8195   18.8868   23.4048 C   0  0  0  0  0  0  0  0  0  0  0  0
   17.9775   18.6655   24.0742 H   0  0  0  0  0  0  0  0  0  0  0  0
   18.5049   18.5897   22.3954 H   0  0  0  0  0  0  0  0  0  0  0  0
   20.0401   18.0411   23.8391 C   0  0  0  0  0  0  0  0  0  0  0  0
   19.7264   16.9908   23.8982 H   0  0  0  0  0  0  0  0  0  0  0  0
   20.3454   18.3326   24.8536 H   0  0  0  0  0  0  0  0  0  0  0  0
   21.2449   18.1705   22.8722 C   0  0  0  0  0  0  0  0  0  0  0  0
   20.9445   17.8594   21.8621 H   0  0  0  0  0  0  0  0  0  0  0  0
   21.5426   19.2245   22.7949 H   0  0  0  0  0  0  0  0  0  0  0  0
   22.4822   17.3531   23.3168 C   0  0  0  0  0  0  0  0  0  0  0  0
   22.7943   17.6680   24.3224 H   0  0  0  0  0  0  0  0  0  0  0  0
   23.3204   17.5914   22.6470 H   0  0  0  0  0  0  0  0  0  0  0  0
   22.2516   15.8246   23.2983 C   0  0  0  0  0  0  0  0  0  0  0  0
   21.5086   15.5188   24.0451 H   0  0  0  0  0  0  0  0  0  0  0  0
   23.1845   15.2930   23.5261 H   0  0  0  0  0  0  0  0  0  0  0  0
   21.9069   15.4888   22.3117 H   0  0  0  0  0  0  0  0  0  0  0  0
   18.2589   22.7192   23.1127 C   0  0  0  0  0  0  0  0  0  0  0  0
   19.0717   22.9156   22.4099 H   0  0  0  0  0  0  0  0  0  0  0  0
   17.3836   23.3127   22.8394 H   0  0  0  0  0  0  0  0  0  0  0  0
   18.5760   22.9748   24.1262 H   0  0  0  0  0  0  0  0  0  0  0  0
  1  2  1  0  0  0  0
  1  3  1  0  0  0  0
  1  4  1  0  0  0  0
  4  5  1  0  0  0  0
  4  6  1  0  0  0  0
  4  7  1  0  0  0  0
  7  8  1  0  0  0  0
  7  9  1  0  0  0  0
  7 10  1  0  0  0  0
 10 11  1  0  0  0  0
 10 12  1  0  0  0  0
 10 13  1  0  0  0  0
 13 14  1  0  0  0  0
 13 15  1  0  0  0  0
 13 16  1  0  0  0  0
 16 17  1  0  0  0  0
 16 18  1  0  0  0  0
 16 19  1  0  0  0  0
 19 20  1  0  0  0  0
 19 21  1  0  0  0  0
 19 22  1  0  0  0  0
  1 23  1  0  0  0  0
 23 24  1  0  0  0  0
 23 25  1  0  0  0  0
 23 26  1  0  0  0  0
M  END
> <VConfSearch Rank>
104

> <Conf_Id>
137

> <Delta U+W>
1.038

> <U+W>
22.880

> <U>
71.810

> <W>
-48.930

> <W(PB)>
-51.257

> <W(SA)>
2.327

> <Valence>
2.568

> <Coulomb>
68.877

> <VdW>
0.364

> <VdW6>
-6.470

> <VdW12>
6.834

> <Bond>
0.191

> <Angle>
0.752

> <Pdih>
1.626

> <Idih>
0.000

> <Tether>
0.000

$$$$
VeraChem MOL file


 26 25  0  0  0  0  0  0  0  0999 V2000     
   18.9763   17.7888   20.8453 N   0  3  0  0  0  0  0  0  0  0  0  0
   19.2172   18.6600   20.3476 H   0  0  0  0  0  0  0  0  0  0  0  0
   17.9880   17.8951   21.1223 H   0  0  0  0  0  0  0  0  0  0  0  0
   19.8495   17.6295   22.0738 C   0  0  0  0  0  0  0  0  0  0  0  0
   20.8848   17.5286   21.7385 H   0  0  0  0  0  0  0  0  0  0  0  0
   19.5577   16.7028   22.5744 H   0  0  0  0  0  0  0  0  0  0  0  0
   19.7365   18.8077   23.0583 C   0  0  0  0  0  0  0  0  0  0  0  0
   20.0134   19.7340   22.5394 H   0  0  0  0  0  0  0  0  0  0  0  0
   18.6920   18.9154   23.3797 H   0  0  0  0  0  0  0  0  0  0  0  0
   20.6429   18.5972   24.2941 C   0  0  0  0  0  0  0  0  0  0  0  0
   21.6936   18.5385   23.9775 H   0  0  0  0  0  0  0  0  0  0  0  0
   20.4043   17.6260   24.7499 H   0  0  0  0  0  0  0  0  0  0  0  0
   20.4865   19.6972   25.3731 C   0  0  0  0  0  0  0  0  0  0  0  0
   19.4394   19.7440   25.7026 H   0  0  0  0  0  0  0  0  0  0  0  0
   21.0736   19.4055   26.2549 H   0  0  0  0  0  0  0  0  0  0  0  0
   20.9486   21.0971   24.9029 C   0  0  0  0  0  0  0  0  0  0  0  0
   20.3223   21.4440   24.0704 H   0  0  0  0  0  0  0  0  0  0  0  0
   21.9789   21.0405   24.5247 H   0  0  0  0  0  0  0  0  0  0  0  0
   20.8798   22.1328   26.0456 C   0  0  0  0  0  0  0  0  0  0  0  0
   19.8548   22.2341   26.4253 H   0  0  0  0  0  0  0  0  0  0  0  0
   21.2078   23.1198   25.6945 H   0  0  0  0  0  0  0  0  0  0  0  0
   21.5273   21.8415   26.8829 H   0  0  0  0  0  0  0  0  0  0  0  0
   19.1474   16.5853   19.9286 C   0  0  0  0  0  0  0  0  0  0  0  0
   18.8553   15.6803   20.4658 H   0  0  0  0  0  0  0  0  0  0  0  0
   18.5134   16.7126   19.0483 H   0  0  0  0  0  0  0  0  0  0  0  0
   20.1934   16.5128   19.6226 H   0  0  0  0  0  0  0  0  0  0  0  0
  1  2  1  0  0  0  0
  1  3  1  0  0  0  0
  1  4  1  0  0  0  0
  4  5  1  0  0  0  0
  4  6  1  0  0  0  0
  4  7  1  0  0  0  0
  7  8  1  0  0  0  0
  7  9  1  0  0  0  0
  7 10  1  0  0  0  0
 10 11  1  0  0  0  0
 10 12  1  0  0  0  0
 10 13  1  0  0  0  0
 13 14  1  0  0  0  0
 13 15  1  0  0  0  0
 13 16  1  0  0  0  0
 16 17  1  0  0  0  0
 16 18  1  0  0  0  0
 16 19  1  0  0  0  0
 19 20  1  0  0  0  0
 19 21  1  0  0  0  0
 19 22  1  0  0  0  0
  1 23  1  0  0  0  0
 23 24  1  0  0  0  0
 23 25  1  0  0  0  0
 23 26  1  0  0  0  0
M  END
> <VConfSearch Rank>
105

> <Conf_Id>
35

> <Delta U+W>
0.670

> <U+W>
22.512

> <U>
71.348

> <W>
-48.837

> <W(PB)>
-51.150

> <W(SA)>
2.313

> <Valence>
2.262

> <Coulomb>
68.807

> <VdW>
0.280

> <VdW6>
-5.915

> <VdW12>
6.195

> <Bond>
0.164

> <Angle>
0.622

> <Pdih>
1.475

> <Idih>
0.000

> <Tether>
0.000

$$$$
VeraChem MOL file


 26 25  0  0  0  0  0  0  0  0999 V2000     
   22.4498   17.5031   22.5587 N   0  3  0  0  0  0  0  0  0  0  0  0
   23.0549   17.9299   23.2773 H   0  0  0  0  0  0  0  0  0  0  0  0
   22.5287   18.1172   21.7332 H   0  0  0  0  0  0  0  0  0  0  0  0
   21.0142   17.4591   23.0427 C   0  0  0  0  0  0  0  0  0  0  0  0
   20.9760   16.8073   23.9192 H   0  0  0  0  0  0  0  0  0  0  0  0
   20.4075   17.0096   22.2526 H   0  0  0  0  0  0  0  0  0  0  0  0
   20.4503   18.8455   23.4032 C   0  0  0  0  0  0  0  0  0  0  0  0
   21.0725   19.3000   24.1857 H   0  0  0  0  0  0  0  0  0  0  0  0
   20.5115   19.4958   22.5216 H   0  0  0  0  0  0  0  0  0  0  0  0
   18.9863   18.7475   23.8932 C   0  0  0  0  0  0  0  0  0  0  0  0
   18.9355   18.0288   24.7231 H   0  0  0  0  0  0  0  0  0  0  0  0
   18.3542   18.3383   23.0928 H   0  0  0  0  0  0  0  0  0  0  0  0
   18.4020   20.0978   24.3770 C   0  0  0  0  0  0  0  0  0  0  0  0
   17.4102   19.9117   24.8120 H   0  0  0  0  0  0  0  0  0  0  0  0
   19.0238   20.4985   25.1895 H   0  0  0  0  0  0  0  0  0  0  0  0
   18.2676   21.1534   23.2537 C   0  0  0  0  0  0  0  0  0  0  0  0
   17.6893   20.7349   22.4181 H   0  0  0  0  0  0  0  0  0  0  0  0
   19.2577   21.4139   22.8569 H   0  0  0  0  0  0  0  0  0  0  0  0
   17.5779   22.4384   23.7596 C   0  0  0  0  0  0  0  0  0  0  0  0
   16.5658   22.2254   24.1276 H   0  0  0  0  0  0  0  0  0  0  0  0
   17.4934   23.1769   22.9518 H   0  0  0  0  0  0  0  0  0  0  0  0
   18.1492   22.8974   24.5770 H   0  0  0  0  0  0  0  0  0  0  0  0
   22.9273   16.0964   22.2253 C   0  0  0  0  0  0  0  0  0  0  0  0
   22.2932   15.6784   21.4404 H   0  0  0  0  0  0  0  0  0  0  0  0
   23.9620   16.1423   21.8783 H   0  0  0  0  0  0  0  0  0  0  0  0
   22.8660   15.4746   23.1212 H   0  0  0  0  0  0  0  0  0  0  0  0
  1  2  1  0  0  0  0
  1  3  1  0  0  0  0
  1  4  1  0  0  0  0
  4  5  1  0  0  0  0
  4  6  1  0  0  0  0
  4  7  1  0  0  0  0
  7  8  1  0  0  0  0
  7  9  1  0  0  0  0
  7 10  1  0  0  0  0
 10 11  1  0  0  0  0
 10 12  1  0  0  0  0
 10 13  1  0  0  0  0
 13 14  1  0  0  0  0
 13 15  1  0  0  0  0
 13 16  1  0  0  0  0
 16 17  1  0  0  0  0
 16 18  1  0  0  0  0
 16 19  1  0  0  0  0
 19 20  1  0  0  0  0
 19 21  1  0  0  0  0
 19 22  1  0  0  0  0
  1 23  1  0  0  0  0
 23 24  1  0  0  0  0
 23 25  1  0  0  0  0
 23 26  1  0  0  0  0
M  END
> <VConfSearch Rank>
106

> <Conf_Id>
36

> <Delta U+W>
0.662

> <U+W>
22.504

> <U>
71.348

> <W>
-48.844

> <W(PB)>
-51.157

> <W(SA)>
2.313

> <Valence>
2.262

> <Coulomb>
68.807

> <VdW>
0.280

> <VdW6>
-5.916

> <VdW12>
6.195

> <Bond>
0.164

> <Angle>
0.622

> <Pdih>
1.475

> <Idih>
0.000

> <Tether>
0.000

$$$$
VeraChem MOL file


 26 25  0  0  0  0  0  0  0  0999 V2000     
   19.6999   16.1217   23.0329 N   0  3  0  0  0  0  0  0  0  0  0  0
   18.7250   16.1716   22.6983 H   0  0  0  0  0  0  0  0  0  0  0  0
   19.6616   15.5789   23.9097 H   0  0  0  0  0  0  0  0  0  0  0  0
   20.2322   17.5146   23.3030 C   0  0  0  0  0  0  0  0  0  0  0  0
   20.2507   18.0535   22.3528 H   0  0  0  0  0  0  0  0  0  0  0  0
   21.2590   17.4170   23.6644 H   0  0  0  0  0  0  0  0  0  0  0  0
   19.3934   18.2982   24.3309 C   0  0  0  0  0  0  0  0  0  0  0  0
   18.3612   18.3948   23.9686 H   0  0  0  0  0  0  0  0  0  0  0  0
   19.3458   17.7254   25.2666 H   0  0  0  0  0  0  0  0  0  0  0  0
   19.9727   19.7011   24.6300 C   0  0  0  0  0  0  0  0  0  0  0  0
   20.9957   19.5998   25.0183 H   0  0  0  0  0  0  0  0  0  0  0  0
   19.3807   20.1628   25.4323 H   0  0  0  0  0  0  0  0  0  0  0  0
   19.9727   20.6350   23.3956 C   0  0  0  0  0  0  0  0  0  0  0  0
   20.6016   20.2093   22.6023 H   0  0  0  0  0  0  0  0  0  0  0  0
   18.9541   20.7074   22.9898 H   0  0  0  0  0  0  0  0  0  0  0  0
   20.4879   22.0490   23.7455 C   0  0  0  0  0  0  0  0  0  0  0  0
   21.5066   21.9825   24.1528 H   0  0  0  0  0  0  0  0  0  0  0  0
   19.8601   22.4889   24.5331 H   0  0  0  0  0  0  0  0  0  0  0  0
   20.4890   22.9790   22.5134 C   0  0  0  0  0  0  0  0  0  0  0  0
   21.1368   22.5833   21.7203 H   0  0  0  0  0  0  0  0  0  0  0  0
   20.8572   23.9777   22.7818 H   0  0  0  0  0  0  0  0  0  0  0  0
   19.4770   23.0924   22.1033 H   0  0  0  0  0  0  0  0  0  0  0  0
   20.5809   15.4201   22.0086 C   0  0  0  0  0  0  0  0  0  0  0  0
   21.5988   15.3498   22.3984 H   0  0  0  0  0  0  0  0  0  0  0  0
   20.1869   14.4183   21.8234 H   0  0  0  0  0  0  0  0  0  0  0  0
   20.5791   15.9947   21.0797 H   0  0  0  0  0  0  0  0  0  0  0  0
  1  2  1  0  0  0  0
  1  3  1  0  0  0  0
  1  4  1  0  0  0  0
  4  5  1  0  0  0  0
  4  6  1  0  0  0  0
  4  7  1  0  0  0  0
  7  8  1  0  0  0  0
  7  9  1  0  0  0  0
  7 10  1  0  0  0  0
 10 11  1  0  0  0  0
 10 12  1  0  0  0  0
 10 13  1  0  0  0  0
 13 14  1  0  0  0  0
 13 15  1  0  0  0  0
 13 16  1  0  0  0  0
 16 17  1  0  0  0  0
 16 18  1  0  0  0  0
 16 19  1  0  0  0  0
 19 20  1  0  0  0  0
 19 21  1  0  0  0  0
 19 22  1  0  0  0  0
  1 23  1  0  0  0  0
 23 24  1  0  0  0  0
 23 25  1  0  0  0  0
 23 26  1  0  0  0  0
M  END
> <VConfSearch Rank>
107

> <Conf_Id>
46

> <Delta U+W>
0.496

> <U+W>
22.338

> <U>
71.138

> <W>
-48.799

> <W(PB)>
-51.136

> <W(SA)>
2.337

> <Valence>
2.016

> <Coulomb>
68.932

> <VdW>
0.190

> <VdW6>
-5.902

> <VdW12>
6.092

> <Bond>
0.149

> <Angle>
0.477

> <Pdih>
1.390

> <Idih>
0.000

> <Tether>
0.000

$$$$
VeraChem MOL file


 26 25  0  0  0  0  0  0  0  0999 V2000     
   19.4763   18.5975   26.2235 N   0  3  0  0  0  0  0  0  0  0  0  0
   19.7230   19.3630   26.8700 H   0  0  0  0  0  0  0  0  0  0  0  0
   20.2109   17.8840   26.3500 H   0  0  0  0  0  0  0  0  0  0  0  0
   19.4761   19.1001   24.7939 C   0  0  0  0  0  0  0  0  0  0  0  0
   18.6944   19.8588   24.7052 H   0  0  0  0  0  0  0  0  0  0  0  0
   19.2161   18.2597   24.1459 H   0  0  0  0  0  0  0  0  0  0  0  0
   20.8284   19.6962   24.3578 C   0  0  0  0  0  0  0  0  0  0  0  0
   21.0992   20.5106   25.0430 H   0  0  0  0  0  0  0  0  0  0  0  0
   21.6142   18.9345   24.4486 H   0  0  0  0  0  0  0  0  0  0  0  0
   20.8010   20.2452   22.9118 C   0  0  0  0  0  0  0  0  0  0  0  0
   21.7629   20.7335   22.7022 H   0  0  0  0  0  0  0  0  0  0  0  0
   20.0325   21.0265   22.8310 H   0  0  0  0  0  0  0  0  0  0  0  0
   20.5449   19.1487   21.8497 C   0  0  0  0  0  0  0  0  0  0  0  0
   21.2952   18.3529   21.9550 H   0  0  0  0  0  0  0  0  0  0  0  0
   19.5636   18.6851   22.0174 H   0  0  0  0  0  0  0  0  0  0  0  0
   20.5970   19.7170   20.4138 C   0  0  0  0  0  0  0  0  0  0  0  0
   21.5787   20.1763   20.2314 H   0  0  0  0  0  0  0  0  0  0  0  0
   19.8488   20.5144   20.3030 H   0  0  0  0  0  0  0  0  0  0  0  0
   20.3398   18.6230   19.3556 C   0  0  0  0  0  0  0  0  0  0  0  0
   21.0931   17.8270   19.4192 H   0  0  0  0  0  0  0  0  0  0  0  0
   20.3813   19.0455   18.3432 H   0  0  0  0  0  0  0  0  0  0  0  0
   19.3497   18.1682   19.4901 H   0  0  0  0  0  0  0  0  0  0  0  0
   18.1094   18.0244   26.5712 C   0  0  0  0  0  0  0  0  0  0  0  0
   18.1232   17.6663   27.6031 H   0  0  0  0  0  0  0  0  0  0  0  0
   17.3540   18.8057   26.4620 H   0  0  0  0  0  0  0  0  0  0  0  0
   17.8851   17.1956   25.8962 H   0  0  0  0  0  0  0  0  0  0  0  0
  1  2  1  0  0  0  0
  1  3  1  0  0  0  0
  1  4  1  0  0  0  0
  4  5  1  0  0  0  0
  4  6  1  0  0  0  0
  4  7  1  0  0  0  0
  7  8  1  0  0  0  0
  7  9  1  0  0  0  0
  7 10  1  0  0  0  0
 10 11  1  0  0  0  0
 10 12  1  0  0  0  0
 10 13  1  0  0  0  0
 13 14  1  0  0  0  0
 13 15  1  0  0  0  0
 13 16  1  0  0  0  0
 16 17  1  0  0  0  0
 16 18  1  0  0  0  0
 16 19  1  0  0  0  0
 19 20  1  0  0  0  0
 19 21  1  0  0  0  0
 19 22  1  0  0  0  0
  1 23  1  0  0  0  0
 23 24  1  0  0  0  0
 23 25  1  0  0  0  0
 23 26  1  0  0  0  0
M  END
> <VConfSearch Rank>
108

> <Conf_Id>
45

> <Delta U+W>
0.471

> <U+W>
22.313

> <U>
71.138

> <W>
-48.825

> <W(PB)>
-51.169

> <W(SA)>
2.344

> <Valence>
2.016

> <Coulomb>
68.932

> <VdW>
0.190

> <VdW6>
-5.902

> <VdW12>
6.092

> <Bond>
0.149

> <Angle>
0.477

> <Pdih>
1.390

> <Idih>
0.000

> <Tether>
0.000

$$$$
VeraChem MOL file


 26 25  0  0  0  0  0  0  0  0999 V2000     
   18.8143   16.8616   23.7070 N   0  3  0  0  0  0  0  0  0  0  0  0
   19.0890   17.2521   24.6209 H   0  0  0  0  0  0  0  0  0  0  0  0
   19.6578   16.3932   23.3413 H   0  0  0  0  0  0  0  0  0  0  0  0
   18.3893   17.9766   22.7710 C   0  0  0  0  0  0  0  0  0  0  0  0
   17.5019   18.4531   23.1952 H   0  0  0  0  0  0  0  0  0  0  0  0
   18.1089   17.5192   21.8188 H   0  0  0  0  0  0  0  0  0  0  0  0
   19.4809   19.0371   22.5270 C   0  0  0  0  0  0  0  0  0  0  0  0
   20.3660   18.5490   22.0999 H   0  0  0  0  0  0  0  0  0  0  0  0
   19.1150   19.7438   21.7705 H   0  0  0  0  0  0  0  0  0  0  0  0
   19.8561   19.8121   23.8151 C   0  0  0  0  0  0  0  0  0  0  0  0
   20.3077   19.1305   24.5482 H   0  0  0  0  0  0  0  0  0  0  0  0
   18.9380   20.2004   24.2778 H   0  0  0  0  0  0  0  0  0  0  0  0
   20.8178   20.9993   23.5625 C   0  0  0  0  0  0  0  0  0  0  0  0
   20.3614   21.6980   22.8477 H   0  0  0  0  0  0  0  0  0  0  0  0
   20.9384   21.5560   24.5022 H   0  0  0  0  0  0  0  0  0  0  0  0
   22.2130   20.5675   23.0514 C   0  0  0  0  0  0  0  0  0  0  0  0
   22.1234   20.0751   22.0740 H   0  0  0  0  0  0  0  0  0  0  0  0
   22.6494   19.8311   23.7406 H   0  0  0  0  0  0  0  0  0  0  0  0
   23.1687   21.7725   22.9189 C   0  0  0  0  0  0  0  0  0  0  0  0
   22.7736   22.5138   22.2122 H   0  0  0  0  0  0  0  0  0  0  0  0
   24.1519   21.4491   22.5529 H   0  0  0  0  0  0  0  0  0  0  0  0
   23.3167   22.2682   23.8871 H   0  0  0  0  0  0  0  0  0  0  0  0
   17.6775   15.8628   23.8733 C   0  0  0  0  0  0  0  0  0  0  0  0
   17.4255   15.4400   22.8983 H   0  0  0  0  0  0  0  0  0  0  0  0
   17.9964   15.0663   24.5495 H   0  0  0  0  0  0  0  0  0  0  0  0
   16.8077   16.3748   24.2907 H   0  0  0  0  0  0  0  0  0  0  0  0
  1  2  1  0  0  0  0
  1  3  1  0  0  0  0
  1  4  1  0  0  0  0
  4  5  1  0  0  0  0
  4  6  1  0  0  0  0
  4  7  1  0  0  0  0
  7  8  1  0  0  0  0
  7  9  1  0  0  0  0
  7 10  1  0  0  0  0
 10 11  1  0  0  0  0
 10 12  1  0  0  0  0
 10 13  1  0  0  0  0
 13 14  1  0  0  0  0
 13 15  1  0  0  0  0
 13 16  1  0  0  0  0
 16 17  1  0  0  0  0
 16 18  1  0  0  0  0
 16 19  1  0  0  0  0
 19 20  1  0  0  0  0
 19 21  1  0  0  0  0
 19 22  1  0  0  0  0
  1 23  1  0  0  0  0
 23 24  1  0  0  0  0
 23 25  1  0  0  0  0
 23 26  1  0  0  0  0
M  END
> <VConfSearch Rank>
109

> <Conf_Id>
143

> <Delta U+W>
0.915

> <U+W>
22.757

> <U>
71.994

> <W>
-49.237

> <W(PB)>
-51.537

> <W(SA)>
2.300

> <Valence>
2.376

> <Coulomb>
69.315

> <VdW>
0.303

> <VdW6>
-6.508

> <VdW12>
6.810

> <Bond>
0.182

> <Angle>
0.660

> <Pdih>
1.534

> <Idih>
0.000

> <Tether>
0.000

$$$$
VeraChem MOL file


 26 25  0  0  0  0  0  0  0  0999 V2000     
   22.1370   19.8816   22.0399 N   0  3  0  0  0  0  0  0  0  0  0  0
   21.5750   19.5346   21.2482 H   0  0  0  0  0  0  0  0  0  0  0  0
   22.7024   19.0766   22.3512 H   0  0  0  0  0  0  0  0  0  0  0  0
   21.2279   20.3455   23.1618 C   0  0  0  0  0  0  0  0  0  0  0  0
   20.6395   21.1896   22.7933 H   0  0  0  0  0  0  0  0  0  0  0  0
   21.8658   20.7033   23.9739 H   0  0  0  0  0  0  0  0  0  0  0  0
   20.2849   19.2508   23.6993 C   0  0  0  0  0  0  0  0  0  0  0  0
   20.8767   18.3913   24.0412 H   0  0  0  0  0  0  0  0  0  0  0  0
   19.7701   19.6554   24.5792 H   0  0  0  0  0  0  0  0  0  0  0  0
   19.2372   18.7968   22.6537 C   0  0  0  0  0  0  0  0  0  0  0  0
   19.7487   18.4903   21.7320 H   0  0  0  0  0  0  0  0  0  0  0  0
   18.6022   19.6510   22.3807 H   0  0  0  0  0  0  0  0  0  0  0  0
   18.3421   17.6176   23.1158 C   0  0  0  0  0  0  0  0  0  0  0  0
   17.6766   17.3613   22.2797 H   0  0  0  0  0  0  0  0  0  0  0  0
   18.9557   16.7227   23.2887 H   0  0  0  0  0  0  0  0  0  0  0  0
   17.4624   17.9130   24.3583 C   0  0  0  0  0  0  0  0  0  0  0  0
   16.5002   17.3959   24.2366 H   0  0  0  0  0  0  0  0  0  0  0  0
   17.2237   18.9843   24.4121 H   0  0  0  0  0  0  0  0  0  0  0  0
   18.0948   17.4346   25.6864 C   0  0  0  0  0  0  0  0  0  0  0  0
   19.0534   17.9249   25.8882 H   0  0  0  0  0  0  0  0  0  0  0  0
   18.2673   16.3507   25.6698 H   0  0  0  0  0  0  0  0  0  0  0  0
   17.4266   17.6517   26.5298 H   0  0  0  0  0  0  0  0  0  0  0  0
   23.0361   21.0264   21.5944 C   0  0  0  0  0  0  0  0  0  0  0  0
   23.6439   21.3555   22.4401 H   0  0  0  0  0  0  0  0  0  0  0  0
   23.6847   20.6792   20.7870 H   0  0  0  0  0  0  0  0  0  0  0  0
   22.4162   21.8529   21.2402 H   0  0  0  0  0  0  0  0  0  0  0  0
  1  2  1  0  0  0  0
  1  3  1  0  0  0  0
  1  4  1  0  0  0  0
  4  5  1  0  0  0  0
  4  6  1  0  0  0  0
  4  7  1  0  0  0  0
  7  8  1  0  0  0  0
  7  9  1  0  0  0  0
  7 10  1  0  0  0  0
 10 11  1  0  0  0  0
 10 12  1  0  0  0  0
 10 13  1  0  0  0  0
 13 14  1  0  0  0  0
 13 15  1  0  0  0  0
 13 16  1  0  0  0  0
 16 17  1  0  0  0  0
 16 18  1  0  0  0  0
 16 19  1  0  0  0  0
 19 20  1  0  0  0  0
 19 21  1  0  0  0  0
 19 22  1  0  0  0  0
  1 23  1  0  0  0  0
 23 24  1  0  0  0  0
 23 25  1  0  0  0  0
 23 26  1  0  0  0  0
M  END
> <VConfSearch Rank>
110

> <Conf_Id>
76

> <Delta U+W>
3.468

> <U+W>
25.310

> <U>
74.594

> <W>
-49.283

> <W(PB)>
-51.537

> <W(SA)>
2.253

> <Valence>
4.886

> <Coulomb>
69.332

> <VdW>
0.376

> <VdW6>
-7.329

> <VdW12>
7.705

> <Bond>
0.232

> <Angle>
1.251

> <Pdih>
3.403

> <Idih>
0.000

> <Tether>
0.000

$$$$
VeraChem MOL file


 26 25  0  0  0  0  0  0  0  0999 V2000     
   20.2037   19.7844   20.6696 N   0  3  0  0  0  0  0  0  0  0  0  0
   20.1367   20.7494   21.0289 H   0  0  0  0  0  0  0  0  0  0  0  0
   19.2513   19.5416   20.3551 H   0  0  0  0  0  0  0  0  0  0  0  0
   20.6452   18.8444   21.7735 C   0  0  0  0  0  0  0  0  0  0  0  0
   21.6514   19.1391   22.0822 H   0  0  0  0  0  0  0  0  0  0  0  0
   20.6948   17.8360   21.3552 H   0  0  0  0  0  0  0  0  0  0  0  0
   19.7061   18.8536   22.9933 C   0  0  0  0  0  0  0  0  0  0  0  0
   19.6421   19.8727   23.3907 H   0  0  0  0  0  0  0  0  0  0  0  0
   18.6937   18.5733   22.6734 H   0  0  0  0  0  0  0  0  0  0  0  0
   20.1931   17.8716   24.0860 C   0  0  0  0  0  0  0  0  0  0  0  0
   21.2276   18.1028   24.3756 H   0  0  0  0  0  0  0  0  0  0  0  0
   20.2187   16.8628   23.6508 H   0  0  0  0  0  0  0  0  0  0  0  0
   19.2826   17.8413   25.3416 C   0  0  0  0  0  0  0  0  0  0  0  0
   18.2440   18.0699   25.0658 H   0  0  0  0  0  0  0  0  0  0  0  0
   19.2660   16.8123   25.7270 H   0  0  0  0  0  0  0  0  0  0  0  0
   19.7420   18.7642   26.4996 C   0  0  0  0  0  0  0  0  0  0  0  0
   20.7417   18.4592   26.8394 H   0  0  0  0  0  0  0  0  0  0  0  0
   19.0703   18.6092   27.3555 H   0  0  0  0  0  0  0  0  0  0  0  0
   19.7572   20.2682   26.1490 C   0  0  0  0  0  0  0  0  0  0  0  0
   18.7900   20.5906   25.7423 H   0  0  0  0  0  0  0  0  0  0  0  0
   20.5403   20.4990   25.4165 H   0  0  0  0  0  0  0  0  0  0  0  0
   19.9611   20.8685   27.0451 H   0  0  0  0  0  0  0  0  0  0  0  0
   21.1840   19.7144   19.5069 C   0  0  0  0  0  0  0  0  0  0  0  0
   22.1767   20.0069   19.8561 H   0  0  0  0  0  0  0  0  0  0  0  0
   21.2130   18.6925   19.1226 H   0  0  0  0  0  0  0  0  0  0  0  0
   20.8545   20.3956   18.7191 H   0  0  0  0  0  0  0  0  0  0  0  0
  1  2  1  0  0  0  0
  1  3  1  0  0  0  0
  1  4  1  0  0  0  0
  4  5  1  0  0  0  0
  4  6  1  0  0  0  0
  4  7  1  0  0  0  0
  7  8  1  0  0  0  0
  7  9  1  0  0  0  0
  7 10  1  0  0  0  0
 10 11  1  0  0  0  0
 10 12  1  0  0  0  0
 10 13  1  0  0  0  0
 13 14  1  0  0  0  0
 13 15  1  0  0  0  0
 13 16  1  0  0  0  0
 16 17  1  0  0  0  0
 16 18  1  0  0  0  0
 16 19  1  0  0  0  0
 19 20  1  0  0  0  0
 19 21  1  0  0  0  0
 19 22  1  0  0  0  0
  1 23  1  0  0  0  0
 23 24  1  0  0  0  0
 23 25  1  0  0  0  0
 23 26  1  0  0  0  0
M  END
> <VConfSearch Rank>
111

> <Conf_Id>
123

> <Delta U+W>
3.101

> <U+W>
24.943

> <U>
74.070

> <W>
-49.127

> <W(PB)>
-51.421

> <W(SA)>
2.295

> <Valence>
4.690

> <Coulomb>
69.115

> <VdW>
0.266

> <VdW6>
-6.809

> <VdW12>
7.075

> <Bond>
0.212

> <Angle>
1.133

> <Pdih>
3.345

> <Idih>
0.000

> <Tether>
0.000

$$$$
VeraChem MOL file


 26 25  0  0  0  0  0  0  0  0999 V2000     
   17.7558   19.0387   24.5149 N   0  3  0  0  0  0  0  0  0  0  0  0
   17.6647   18.0502   24.7965 H   0  0  0  0  0  0  0  0  0  0  0  0
   17.5248   19.0624   23.5103 H   0  0  0  0  0  0  0  0  0  0  0  0
   19.1791   19.5143   24.7334 C   0  0  0  0  0  0  0  0  0  0  0  0
   19.3788   19.4732   25.8072 H   0  0  0  0  0  0  0  0  0  0  0  0
   19.2385   20.5581   24.4152 H   0  0  0  0  0  0  0  0  0  0  0  0
   20.2397   18.6831   23.9847 C   0  0  0  0  0  0  0  0  0  0  0  0
   21.2304   19.0343   24.2941 H   0  0  0  0  0  0  0  0  0  0  0  0
   20.1723   17.6344   24.3032 H   0  0  0  0  0  0  0  0  0  0  0  0
   20.0938   18.7768   22.4443 C   0  0  0  0  0  0  0  0  0  0  0  0
   20.0630   19.8281   22.1261 H   0  0  0  0  0  0  0  0  0  0  0  0
   19.1262   18.3435   22.1579 H   0  0  0  0  0  0  0  0  0  0  0  0
   21.2081   18.0211   21.6738 C   0  0  0  0  0  0  0  0  0  0  0  0
   21.5715   17.1697   22.2655 H   0  0  0  0  0  0  0  0  0  0  0  0
   20.7626   17.5833   20.7696 H   0  0  0  0  0  0  0  0  0  0  0  0
   22.3994   18.9054   21.2242 C   0  0  0  0  0  0  0  0  0  0  0  0
   22.0387   19.6938   20.5488 H   0  0  0  0  0  0  0  0  0  0  0  0
   23.0869   18.2877   20.6294 H   0  0  0  0  0  0  0  0  0  0  0  0
   23.1901   19.5479   22.3850 C   0  0  0  0  0  0  0  0  0  0  0  0
   23.5159   18.7907   23.1097 H   0  0  0  0  0  0  0  0  0  0  0  0
   22.5878   20.2994   22.9100 H   0  0  0  0  0  0  0  0  0  0  0  0
   24.0861   20.0548   22.0040 H   0  0  0  0  0  0  0  0  0  0  0  0
   16.7905   19.9112   25.3051 C   0  0  0  0  0  0  0  0  0  0  0  0
   16.8829   20.9458   24.9675 H   0  0  0  0  0  0  0  0  0  0  0  0
   15.7703   19.5584   25.1386 H   0  0  0  0  0  0  0  0  0  0  0  0
   17.0347   19.8454   26.3676 H   0  0  0  0  0  0  0  0  0  0  0  0
  1  2  1  0  0  0  0
  1  3  1  0  0  0  0
  1  4  1  0  0  0  0
  4  5  1  0  0  0  0
  4  6  1  0  0  0  0
  4  7  1  0  0  0  0
  7  8  1  0  0  0  0
  7  9  1  0  0  0  0
  7 10  1  0  0  0  0
 10 11  1  0  0  0  0
 10 12  1  0  0  0  0
 10 13  1  0  0  0  0
 13 14  1  0  0  0  0
 13 15  1  0  0  0  0
 13 16  1  0  0  0  0
 16 17  1  0  0  0  0
 16 18  1  0  0  0  0
 16 19  1  0  0  0  0
 19 20  1  0  0  0  0
 19 21  1  0  0  0  0
 19 22  1  0  0  0  0
  1 23  1  0  0  0  0
 23 24  1  0  0  0  0
 23 25  1  0  0  0  0
 23 26  1  0  0  0  0
M  END
> <VConfSearch Rank>
112

> <Conf_Id>
111

> <Delta U+W>
3.383

> <U+W>
25.225

> <U>
74.516

> <W>
-49.292

> <W(PB)>
-51.558

> <W(SA)>
2.266

> <Valence>
4.842

> <Coulomb>
69.333

> <VdW>
0.342

> <VdW6>
-7.369

> <VdW12>
7.711

> <Bond>
0.232

> <Angle>
1.153

> <Pdih>
3.457

> <Idih>
0.000

> <Tether>
0.000

$$$$
VeraChem MOL file


 26 25  0  0  0  0  0  0  0  0999 V2000     
   19.8343   21.4677   22.8325 N   0  3  0  0  0  0  0  0  0  0  0  0
   18.9208   21.7685   22.4588 H   0  0  0  0  0  0  0  0  0  0  0  0
   20.2001   20.7840   22.1530 H   0  0  0  0  0  0  0  0  0  0  0  0
   19.6524   20.8068   24.1848 C   0  0  0  0  0  0  0  0  0  0  0  0
   19.2539   21.5592   24.8701 H   0  0  0  0  0  0  0  0  0  0  0  0
   20.6380   20.5063   24.5480 H   0  0  0  0  0  0  0  0  0  0  0  0
   18.7097   19.5857   24.1612 C   0  0  0  0  0  0  0  0  0  0  0  0
   18.6024   19.2046   25.1855 H   0  0  0  0  0  0  0  0  0  0  0  0
   17.7083   19.9122   23.8507 H   0  0  0  0  0  0  0  0  0  0  0  0
   19.1825   18.4359   23.2358 C   0  0  0  0  0  0  0  0  0  0  0  0
   19.2100   18.7809   22.1937 H   0  0  0  0  0  0  0  0  0  0  0  0
   18.4290   17.6385   23.2730 H   0  0  0  0  0  0  0  0  0  0  0  0
   20.5658   17.8608   23.6345 C   0  0  0  0  0  0  0  0  0  0  0  0
   21.3160   18.6623   23.6205 H   0  0  0  0  0  0  0  0  0  0  0  0
   20.5287   17.4905   24.6682 H   0  0  0  0  0  0  0  0  0  0  0  0
   21.0556   16.7292   22.6984 C   0  0  0  0  0  0  0  0  0  0  0  0
   22.0840   16.4613   22.9790 H   0  0  0  0  0  0  0  0  0  0  0  0
   21.1062   17.0973   21.6641 H   0  0  0  0  0  0  0  0  0  0  0  0
   20.1787   15.4575   22.7558 C   0  0  0  0  0  0  0  0  0  0  0  0
   19.1712   15.6430   22.3636 H   0  0  0  0  0  0  0  0  0  0  0  0
   20.0851   15.0881   23.7852 H   0  0  0  0  0  0  0  0  0  0  0  0
   20.6242   14.6566   22.1516 H   0  0  0  0  0  0  0  0  0  0  0  0
   20.7790   22.6547   22.9579 C   0  0  0  0  0  0  0  0  0  0  0  0
   20.9017   23.1201   21.9774 H   0  0  0  0  0  0  0  0  0  0  0  0
   20.3560   23.3776   23.6590 H   0  0  0  0  0  0  0  0  0  0  0  0
   21.7470   22.3062   23.3246 H   0  0  0  0  0  0  0  0  0  0  0  0
  1  2  1  0  0  0  0
  1  3  1  0  0  0  0
  1  4  1  0  0  0  0
  4  5  1  0  0  0  0
  4  6  1  0  0  0  0
  4  7  1  0  0  0  0
  7  8  1  0  0  0  0
  7  9  1  0  0  0  0
  7 10  1  0  0  0  0
 10 11  1  0  0  0  0
 10 12  1  0  0  0  0
 10 13  1  0  0  0  0
 13 14  1  0  0  0  0
 13 15  1  0  0  0  0
 13 16  1  0  0  0  0
 16 17  1  0  0  0  0
 16 18  1  0  0  0  0
 16 19  1  0  0  0  0
 19 20  1  0  0  0  0
 19 21  1  0  0  0  0
 19 22  1  0  0  0  0
  1 23  1  0  0  0  0
 23 24  1  0  0  0  0
 23 25  1  0  0  0  0
 23 26  1  0  0  0  0
M  END
> <VConfSearch Rank>
113

> <Conf_Id>
126

> <Delta U+W>
1.519

> <U+W>
23.361

> <U>
72.579

> <W>
-49.218

> <W(PB)>
-51.496

> <W(SA)>
2.279

> <Valence>
2.678

> <Coulomb>
69.622

> <VdW>
0.279

> <VdW6>
-7.328

> <VdW12>
7.608

> <Bond>
0.212

> <Angle>
0.911

> <Pdih>
1.555

> <Idih>
0.000

> <Tether>
0.000

$$$$
VeraChem MOL file


 26 25  0  0  0  0  0  0  0  0999 V2000     
   19.7450   19.7968   20.9967 N   0  3  0  0  0  0  0  0  0  0  0  0
   19.0071   19.8390   21.7157 H   0  0  0  0  0  0  0  0  0  0  0  0
   19.4602   19.0440   20.3511 H   0  0  0  0  0  0  0  0  0  0  0  0
   21.0752   19.4567   21.6397 C   0  0  0  0  0  0  0  0  0  0  0  0
   21.3437   20.2756   22.3111 H   0  0  0  0  0  0  0  0  0  0  0  0
   21.8246   19.4105   20.8454 H   0  0  0  0  0  0  0  0  0  0  0  0
   21.0704   18.1240   22.4170 C   0  0  0  0  0  0  0  0  0  0  0  0
   20.8569   17.3033   21.7195 H   0  0  0  0  0  0  0  0  0  0  0  0
   22.0811   17.9396   22.8048 H   0  0  0  0  0  0  0  0  0  0  0  0
   20.0574   18.0758   23.5890 C   0  0  0  0  0  0  0  0  0  0  0  0
   20.1176   17.0810   24.0490 H   0  0  0  0  0  0  0  0  0  0  0  0
   19.0337   18.1719   23.2035 H   0  0  0  0  0  0  0  0  0  0  0  0
   20.3166   19.1610   24.6651 C   0  0  0  0  0  0  0  0  0  0  0  0
   21.3315   19.0459   25.0700 H   0  0  0  0  0  0  0  0  0  0  0  0
   20.2802   20.1557   24.2017 H   0  0  0  0  0  0  0  0  0  0  0  0
   19.2922   19.1350   25.8256 C   0  0  0  0  0  0  0  0  0  0  0  0
   18.2756   19.2619   25.4279 H   0  0  0  0  0  0  0  0  0  0  0  0
   19.4768   20.0008   26.4770 H   0  0  0  0  0  0  0  0  0  0  0  0
   19.3597   17.8484   26.6800 C   0  0  0  0  0  0  0  0  0  0  0  0
   20.3749   17.6809   27.0626 H   0  0  0  0  0  0  0  0  0  0  0  0
   19.0584   16.9646   26.1044 H   0  0  0  0  0  0  0  0  0  0  0  0
   18.6850   17.9246   27.5425 H   0  0  0  0  0  0  0  0  0  0  0  0
   19.8494   21.1243   20.2592 C   0  0  0  0  0  0  0  0  0  0  0  0
   20.1205   21.9091   20.9688 H   0  0  0  0  0  0  0  0  0  0  0  0
   20.6151   21.0452   19.4844 H   0  0  0  0  0  0  0  0  0  0  0  0
   18.8849   21.3571   19.8023 H   0  0  0  0  0  0  0  0  0  0  0  0
  1  2  1  0  0  0  0
  1  3  1  0  0  0  0
  1  4  1  0  0  0  0
  4  5  1  0  0  0  0
  4  6  1  0  0  0  0
  4  7  1  0  0  0  0
  7  8  1  0  0  0  0
  7  9  1  0  0  0  0
  7 10  1  0  0  0  0
 10 11  1  0  0  0  0
 10 12  1  0  0  0  0
 10 13  1  0  0  0  0
 13 14  1  0  0  0  0
 13 15  1  0  0  0  0
 13 16  1  0  0  0  0
 16 17  1  0  0  0  0
 16 18  1  0  0  0  0
 16 19  1  0  0  0  0
 19 20  1  0  0  0  0
 19 21  1  0  0  0  0
 19 22  1  0  0  0  0
  1 23  1  0  0  0  0
 23 24  1  0  0  0  0
 23 25  1  0  0  0  0
 23 26  1  0  0  0  0
M  END
> <VConfSearch Rank>
114

> <Conf_Id>
134

> <Delta U+W>
1.464

> <U+W>
23.306

> <U>
72.579

> <W>
-49.273

> <W(PB)>
-51.540

> <W(SA)>
2.267

> <Valence>
2.677

> <Coulomb>
69.622

> <VdW>
0.280

> <VdW6>
-7.328

> <VdW12>
7.608

> <Bond>
0.212

> <Angle>
0.911

> <Pdih>
1.555

> <Idih>
0.000

> <Tether>
0.000

$$$$
VeraChem MOL file


 26 25  0  0  0  0  0  0  0  0999 V2000     
   20.3008   16.3334   23.8119 N   0  3  0  0  0  0  0  0  0  0  0  0
   19.3065   16.3977   24.0804 H   0  0  0  0  0  0  0  0  0  0  0  0
   20.8252   16.3239   24.7006 H   0  0  0  0  0  0  0  0  0  0  0  0
   20.6980   17.5386   22.9833 C   0  0  0  0  0  0  0  0  0  0  0  0
   20.1166   17.5158   22.0581 H   0  0  0  0  0  0  0  0  0  0  0  0
   21.7557   17.4359   22.7280 H   0  0  0  0  0  0  0  0  0  0  0  0
   20.4674   18.8777   23.7068 C   0  0  0  0  0  0  0  0  0  0  0  0
   19.4064   18.9613   23.9742 H   0  0  0  0  0  0  0  0  0  0  0  0
   21.0405   18.8904   24.6433 H   0  0  0  0  0  0  0  0  0  0  0  0
   20.8880   20.0751   22.8226 C   0  0  0  0  0  0  0  0  0  0  0  0
   20.2882   20.0865   21.9027 H   0  0  0  0  0  0  0  0  0  0  0  0
   21.9292   19.9327   22.5013 H   0  0  0  0  0  0  0  0  0  0  0  0
   20.7820   21.4453   23.5412 C   0  0  0  0  0  0  0  0  0  0  0  0
   21.4742   21.4557   24.3945 H   0  0  0  0  0  0  0  0  0  0  0  0
   21.1366   22.2295   22.8582 H   0  0  0  0  0  0  0  0  0  0  0  0
   19.3647   21.8224   24.0436 C   0  0  0  0  0  0  0  0  0  0  0  0
   19.4173   22.8056   24.5317 H   0  0  0  0  0  0  0  0  0  0  0  0
   19.0376   21.1195   24.8213 H   0  0  0  0  0  0  0  0  0  0  0  0
   18.3084   21.8828   22.9168 C   0  0  0  0  0  0  0  0  0  0  0  0
   18.6228   22.5661   22.1173 H   0  0  0  0  0  0  0  0  0  0  0  0
   17.3485   22.2435   23.3085 H   0  0  0  0  0  0  0  0  0  0  0  0
   18.1338   20.8937   22.4754 H   0  0  0  0  0  0  0  0  0  0  0  0
   20.5599   15.0558   23.0254 C   0  0  0  0  0  0  0  0  0  0  0  0
   21.6227   14.9935   22.7816 H   0  0  0  0  0  0  0  0  0  0  0  0
   20.2698   14.1959   23.6332 H   0  0  0  0  0  0  0  0  0  0  0  0
   19.9698   15.0739   22.1065 H   0  0  0  0  0  0  0  0  0  0  0  0
  1  2  1  0  0  0  0
  1  3  1  0  0  0  0
  1  4  1  0  0  0  0
  4  5  1  0  0  0  0
  4  6  1  0  0  0  0
  4  7  1  0  0  0  0
  7  8  1  0  0  0  0
  7  9  1  0  0  0  0
  7 10  1  0  0  0  0
 10 11  1  0  0  0  0
 10 12  1  0  0  0  0
 10 13  1  0  0  0  0
 13 14  1  0  0  0  0
 13 15  1  0  0  0  0
 13 16  1  0  0  0  0
 16 17  1  0  0  0  0
 16 18  1  0  0  0  0
 16 19  1  0  0  0  0
 19 20  1  0  0  0  0
 19 21  1  0  0  0  0
 19 22  1  0  0  0  0
  1 23  1  0  0  0  0
 23 24  1  0  0  0  0
 23 25  1  0  0  0  0
 23 26  1  0  0  0  0
M  END
> <VConfSearch Rank>
115

> <Conf_Id>
30

> <Delta U+W>
0.910

> <U+W>
22.752

> <U>
71.870

> <W>
-49.118

> <W(PB)>
-51.409

> <W(SA)>
2.290

> <Valence>
2.682

> <Coulomb>
68.933

> <VdW>
0.255

> <VdW6>
-6.833

> <VdW12>
7.088

> <Bond>
0.205

> <Angle>
1.003

> <Pdih>
1.473

> <Idih>
0.000

> <Tether>
0.000

$$$$
VeraChem MOL file


 26 25  0  0  0  0  0  0  0  0999 V2000     
   21.6856   20.3099   21.4815 N   0  3  0  0  0  0  0  0  0  0  0  0
   21.6959   21.2766   21.8422 H   0  0  0  0  0  0  0  0  0  0  0  0
   20.8838   20.2670   20.8334 H   0  0  0  0  0  0  0  0  0  0  0  0
   21.4909   19.3290   22.6203 C   0  0  0  0  0  0  0  0  0  0  0  0
   22.3543   19.4118   23.2852 H   0  0  0  0  0  0  0  0  0  0  0  0
   21.4778   18.3216   22.1967 H   0  0  0  0  0  0  0  0  0  0  0  0
   20.1972   19.5718   23.4186 C   0  0  0  0  0  0  0  0  0  0  0  0
   20.2070   20.5902   23.8292 H   0  0  0  0  0  0  0  0  0  0  0  0
   19.3393   19.5044   22.7377 H   0  0  0  0  0  0  0  0  0  0  0  0
   20.0444   18.5483   24.5681 C   0  0  0  0  0  0  0  0  0  0  0  0
   20.9479   18.5764   25.1930 H   0  0  0  0  0  0  0  0  0  0  0  0
   19.9951   17.5315   24.1561 H   0  0  0  0  0  0  0  0  0  0  0  0
   18.8149   18.8125   25.4756 C   0  0  0  0  0  0  0  0  0  0  0  0
   18.8071   18.0679   26.2836 H   0  0  0  0  0  0  0  0  0  0  0  0
   18.9368   19.7873   25.9676 H   0  0  0  0  0  0  0  0  0  0  0  0
   17.4419   18.7847   24.7563 C   0  0  0  0  0  0  0  0  0  0  0  0
   17.3789   19.6022   24.0257 H   0  0  0  0  0  0  0  0  0  0  0  0
   16.6552   18.9841   25.4973 H   0  0  0  0  0  0  0  0  0  0  0  0
   17.1391   17.4383   24.0602 C   0  0  0  0  0  0  0  0  0  0  0  0
   17.8310   17.2500   23.2298 H   0  0  0  0  0  0  0  0  0  0  0  0
   16.1217   17.4385   23.6483 H   0  0  0  0  0  0  0  0  0  0  0  0
   17.2147   16.6024   24.7677 H   0  0  0  0  0  0  0  0  0  0  0  0
   22.9827   20.0001   20.7471 C   0  0  0  0  0  0  0  0  0  0  0  0
   23.1109   20.7134   19.9299 H   0  0  0  0  0  0  0  0  0  0  0  0
   23.8191   20.0840   21.4445 H   0  0  0  0  0  0  0  0  0  0  0  0
   22.9351   18.9850   20.3466 H   0  0  0  0  0  0  0  0  0  0  0  0
  1  2  1  0  0  0  0
  1  3  1  0  0  0  0
  1  4  1  0  0  0  0
  4  5  1  0  0  0  0
  4  6  1  0  0  0  0
  4  7  1  0  0  0  0
  7  8  1  0  0  0  0
  7  9  1  0  0  0  0
  7 10  1  0  0  0  0
 10 11  1  0  0  0  0
 10 12  1  0  0  0  0
 10 13  1  0  0  0  0
 13 14  1  0  0  0  0
 13 15  1  0  0  0  0
 13 16  1  0  0  0  0
 16 17  1  0  0  0  0
 16 18  1  0  0  0  0
 16 19  1  0  0  0  0
 19 20  1  0  0  0  0
 19 21  1  0  0  0  0
 19 22  1  0  0  0  0
  1 23  1  0  0  0  0
 23 24  1  0  0  0  0
 23 25  1  0  0  0  0
 23 26  1  0  0  0  0
M  END
> <VConfSearch Rank>
116

> <Conf_Id>
29

> <Delta U+W>
0.886

> <U+W>
22.729

> <U>
71.870

> <W>
-49.141

> <W(PB)>
-51.404

> <W(SA)>
2.262

> <Valence>
2.682

> <Coulomb>
68.933

> <VdW>
0.255

> <VdW6>
-6.833

> <VdW12>
7.088

> <Bond>
0.205

> <Angle>
1.003

> <Pdih>
1.473

> <Idih>
0.000

> <Tether>
0.000

$$$$
VeraChem MOL file


 26 25  0  0  0  0  0  0  0  0999 V2000     
   22.1006   20.1699   24.4470 N   0  3  0  0  0  0  0  0  0  0  0  0
   22.1252   20.1346   25.4780 H   0  0  0  0  0  0  0  0  0  0  0  0
   21.6601   21.0732   24.2135 H   0  0  0  0  0  0  0  0  0  0  0  0
   21.2680   19.0259   23.9046 C   0  0  0  0  0  0  0  0  0  0  0  0
   21.7601   18.0907   24.1832 H   0  0  0  0  0  0  0  0  0  0  0  0
   21.2657   19.1029   22.8147 H   0  0  0  0  0  0  0  0  0  0  0  0
   19.8192   19.0249   24.4280 C   0  0  0  0  0  0  0  0  0  0  0  0
   19.8332   18.9833   25.5252 H   0  0  0  0  0  0  0  0  0  0  0  0
   19.3288   19.9699   24.1618 H   0  0  0  0  0  0  0  0  0  0  0  0
   18.9917   17.8299   23.8928 C   0  0  0  0  0  0  0  0  0  0  0  0
   17.9792   17.8761   24.3156 H   0  0  0  0  0  0  0  0  0  0  0  0
   19.4288   16.8967   24.2741 H   0  0  0  0  0  0  0  0  0  0  0  0
   18.9043   17.7391   22.3452 C   0  0  0  0  0  0  0  0  0  0  0  0
   19.9004   17.5242   21.9353 H   0  0  0  0  0  0  0  0  0  0  0  0
   18.2836   16.8724   22.0795 H   0  0  0  0  0  0  0  0  0  0  0  0
   18.3335   18.9970   21.6418 C   0  0  0  0  0  0  0  0  0  0  0  0
   18.3316   18.8209   20.5571 H   0  0  0  0  0  0  0  0  0  0  0  0
   18.9964   19.8573   21.8049 H   0  0  0  0  0  0  0  0  0  0  0  0
   16.8977   19.3518   22.0905 C   0  0  0  0  0  0  0  0  0  0  0  0
   16.5087   20.1944   21.5045 H   0  0  0  0  0  0  0  0  0  0  0  0
   16.8666   19.6426   23.1479 H   0  0  0  0  0  0  0  0  0  0  0  0
   16.2183   18.5016   21.9476 H   0  0  0  0  0  0  0  0  0  0  0  0
   23.5103   20.1000   23.8765 C   0  0  0  0  0  0  0  0  0  0  0  0
   24.0995   20.9289   24.2751 H   0  0  0  0  0  0  0  0  0  0  0  0
   23.9675   19.1507   24.1641 H   0  0  0  0  0  0  0  0  0  0  0  0
   23.4612   20.1724   22.7878 H   0  0  0  0  0  0  0  0  0  0  0  0
  1  2  1  0  0  0  0
  1  3  1  0  0  0  0
  1  4  1  0  0  0  0
  4  5  1  0  0  0  0
  4  6  1  0  0  0  0
  4  7  1  0  0  0  0
  7  8  1  0  0  0  0
  7  9  1  0  0  0  0
  7 10  1  0  0  0  0
 10 11  1  0  0  0  0
 10 12  1  0  0  0  0
 10 13  1  0  0  0  0
 13 14  1  0  0  0  0
 13 15  1  0  0  0  0
 13 16  1  0  0  0  0
 16 17  1  0  0  0  0
 16 18  1  0  0  0  0
 16 19  1  0  0  0  0
 19 20  1  0  0  0  0
 19 21  1  0  0  0  0
 19 22  1  0  0  0  0
  1 23  1  0  0  0  0
 23 24  1  0  0  0  0
 23 25  1  0  0  0  0
 23 26  1  0  0  0  0
M  END
> <VConfSearch Rank>
117

> <Conf_Id>
82

> <Delta U+W>
1.026

> <U+W>
22.868

> <U>
72.455

> <W>
-49.586

> <W(PB)>
-51.821

> <W(SA)>
2.234

> <Valence>
2.908

> <Coulomb>
69.435

> <VdW>
0.112

> <VdW6>
-7.765

> <VdW12>
7.877

> <Bond>
0.233

> <Angle>
1.170

> <Pdih>
1.506

> <Idih>
0.000

> <Tether>
0.000

$$$$
VeraChem MOL file


 26 25  0  0  0  0  0  0  0  0999 V2000     
   22.6000   19.4034   24.0933 N   0  3  0  0  0  0  0  0  0  0  0  0
   22.2341   19.2487   25.0456 H   0  0  0  0  0  0  0  0  0  0  0  0
   22.9586   20.3710   24.0907 H   0  0  0  0  0  0  0  0  0  0  0  0
   21.4879   19.2554   23.0747 C   0  0  0  0  0  0  0  0  0  0  0  0
   21.1364   18.2215   23.1130 H   0  0  0  0  0  0  0  0  0  0  0  0
   21.9126   19.4388   22.0846 H   0  0  0  0  0  0  0  0  0  0  0  0
   20.3071   20.2144   23.3179 C   0  0  0  0  0  0  0  0  0  0  0  0
   19.8895   20.0413   24.3179 H   0  0  0  0  0  0  0  0  0  0  0  0
   20.6768   21.2484   23.3130 H   0  0  0  0  0  0  0  0  0  0  0  0
   19.1952   20.0757   22.2485 C   0  0  0  0  0  0  0  0  0  0  0  0
   19.6026   20.3736   21.2724 H   0  0  0  0  0  0  0  0  0  0  0  0
   18.3952   20.7957   22.4668 H   0  0  0  0  0  0  0  0  0  0  0  0
   18.5905   18.6515   22.1183 C   0  0  0  0  0  0  0  0  0  0  0  0
   17.8051   18.6731   21.3503 H   0  0  0  0  0  0  0  0  0  0  0  0
   19.3565   17.9632   21.7364 H   0  0  0  0  0  0  0  0  0  0  0  0
   17.9962   18.0654   23.4244 C   0  0  0  0  0  0  0  0  0  0  0  0
   18.7862   17.9341   24.1760 H   0  0  0  0  0  0  0  0  0  0  0  0
   17.6125   17.0575   23.2129 H   0  0  0  0  0  0  0  0  0  0  0  0
   16.8512   18.9196   24.0144 C   0  0  0  0  0  0  0  0  0  0  0  0
   17.2105   19.9026   24.3432 H   0  0  0  0  0  0  0  0  0  0  0  0
   16.4090   18.4207   24.8864 H   0  0  0  0  0  0  0  0  0  0  0  0
   16.0538   19.0743   23.2761 H   0  0  0  0  0  0  0  0  0  0  0  0
   23.7190   18.4184   23.7848 C   0  0  0  0  0  0  0  0  0  0  0  0
   24.1121   18.6227   22.7864 H   0  0  0  0  0  0  0  0  0  0  0  0
   24.5136   18.5356   24.5251 H   0  0  0  0  0  0  0  0  0  0  0  0
   23.3236   17.4011   23.8259 H   0  0  0  0  0  0  0  0  0  0  0  0
  1  2  1  0  0  0  0
  1  3  1  0  0  0  0
  1  4  1  0  0  0  0
  4  5  1  0  0  0  0
  4  6  1  0  0  0  0
  4  7  1  0  0  0  0
  7  8  1  0  0  0  0
  7  9  1  0  0  0  0
  7 10  1  0  0  0  0
 10 11  1  0  0  0  0
 10 12  1  0  0  0  0
 10 13  1  0  0  0  0
 13 14  1  0  0  0  0
 13 15  1  0  0  0  0
 13 16  1  0  0  0  0
 16 17  1  0  0  0  0
 16 18  1  0  0  0  0
 16 19  1  0  0  0  0
 19 20  1  0  0  0  0
 19 21  1  0  0  0  0
 19 22  1  0  0  0  0
  1 23  1  0  0  0  0
 23 24  1  0  0  0  0
 23 25  1  0  0  0  0
 23 26  1  0  0  0  0
M  END
> <VConfSearch Rank>
118

> <Conf_Id>
71

> <Delta U+W>
1.096

> <U+W>
22.938

> <U>
72.455

> <W>
-49.517

> <W(PB)>
-51.795

> <W(SA)>
2.278

> <Valence>
2.908

> <Coulomb>
69.435

> <VdW>
0.112

> <VdW6>
-7.766

> <VdW12>
7.877

> <Bond>
0.233

> <Angle>
1.170

> <Pdih>
1.506

> <Idih>
0.000

> <Tether>
0.000

$$$$
VeraChem MOL file


 26 25  0  0  0  0  0  0  0  0999 V2000     
   18.9454   16.9561   23.7116 N   0  3  0  0  0  0  0  0  0  0  0  0
   18.8545   17.4673   22.8210 H   0  0  0  0  0  0  0  0  0  0  0  0
   17.9935   16.6214   23.9296 H   0  0  0  0  0  0  0  0  0  0  0  0
   19.4178   17.8998   24.8061 C   0  0  0  0  0  0  0  0  0  0  0  0
   19.5193   17.3174   25.7254 H   0  0  0  0  0  0  0  0  0  0  0  0
   18.6279   18.6379   24.9642 H   0  0  0  0  0  0  0  0  0  0  0  0
   20.7450   18.6352   24.5111 C   0  0  0  0  0  0  0  0  0  0  0  0
   20.9798   19.2889   25.3614 H   0  0  0  0  0  0  0  0  0  0  0  0
   21.5618   17.9037   24.4591 H   0  0  0  0  0  0  0  0  0  0  0  0
   20.7292   19.4764   23.2098 C   0  0  0  0  0  0  0  0  0  0  0  0
   20.5739   18.8199   22.3433 H   0  0  0  0  0  0  0  0  0  0  0  0
   21.7242   19.9215   23.0807 H   0  0  0  0  0  0  0  0  0  0  0  0
   19.6578   20.5966   23.2199 C   0  0  0  0  0  0  0  0  0  0  0  0
   18.6649   20.1559   23.3790 H   0  0  0  0  0  0  0  0  0  0  0  0
   19.8356   21.2708   24.0690 H   0  0  0  0  0  0  0  0  0  0  0  0
   19.6137   21.4187   21.9088 C   0  0  0  0  0  0  0  0  0  0  0  0
   18.7594   22.1085   21.9548 H   0  0  0  0  0  0  0  0  0  0  0  0
   19.4230   20.7510   21.0570 H   0  0  0  0  0  0  0  0  0  0  0  0
   20.8992   22.2375   21.6503 C   0  0  0  0  0  0  0  0  0  0  0  0
   21.7637   21.5868   21.4702 H   0  0  0  0  0  0  0  0  0  0  0  0
   21.1303   22.8898   22.5024 H   0  0  0  0  0  0  0  0  0  0  0  0
   20.7769   22.8743   20.7645 H   0  0  0  0  0  0  0  0  0  0  0  0
   19.8910   15.7702   23.5604 C   0  0  0  0  0  0  0  0  0  0  0  0
   19.5044   15.1008   22.7887 H   0  0  0  0  0  0  0  0  0  0  0  0
   20.8799   16.1318   23.2713 H   0  0  0  0  0  0  0  0  0  0  0  0
   19.9541   15.2383   24.5122 H   0  0  0  0  0  0  0  0  0  0  0  0
  1  2  1  0  0  0  0
  1  3  1  0  0  0  0
  1  4  1  0  0  0  0
  4  5  1  0  0  0  0
  4  6  1  0  0  0  0
  4  7  1  0  0  0  0
  7  8  1  0  0  0  0
  7  9  1  0  0  0  0
  7 10  1  0  0  0  0
 10 11  1  0  0  0  0
 10 12  1  0  0  0  0
 10 13  1  0  0  0  0
 13 14  1  0  0  0  0
 13 15  1  0  0  0  0
 13 16  1  0  0  0  0
 16 17  1  0  0  0  0
 16 18  1  0  0  0  0
 16 19  1  0  0  0  0
 19 20  1  0  0  0  0
 19 21  1  0  0  0  0
 19 22  1  0  0  0  0
  1 23  1  0  0  0  0
 23 24  1  0  0  0  0
 23 25  1  0  0  0  0
 23 26  1  0  0  0  0
M  END
> <VConfSearch Rank>
119

> <Conf_Id>
84

> <Delta U+W>
1.456

> <U+W>
23.298

> <U>
73.042

> <W>
-49.744

> <W(PB)>
-51.966

> <W(SA)>
2.222

> <Valence>
2.938

> <Coulomb>
69.625

> <VdW>
0.478

> <VdW6>
-8.182

> <VdW12>
8.660

> <Bond>
0.253

> <Angle>
1.038

> <Pdih>
1.647

> <Idih>
0.000

> <Tether>
0.000

$$$$
VeraChem MOL file


 26 25  0  0  0  0  0  0  0  0999 V2000     
   18.2212   17.5634   23.6225 N   0  3  0  0  0  0  0  0  0  0  0  0
   18.4956   18.2952   24.2950 H   0  0  0  0  0  0  0  0  0  0  0  0
   18.3476   16.6683   24.1199 H   0  0  0  0  0  0  0  0  0  0  0  0
   19.1228   17.6150   22.4047 C   0  0  0  0  0  0  0  0  0  0  0  0
   18.9582   18.5721   21.9041 H   0  0  0  0  0  0  0  0  0  0  0  0
   18.8080   16.8186   21.7255 H   0  0  0  0  0  0  0  0  0  0  0  0
   20.6215   17.4477   22.7302 C   0  0  0  0  0  0  0  0  0  0  0  0
   20.7830   16.4612   23.1847 H   0  0  0  0  0  0  0  0  0  0  0  0
   21.1874   17.4467   21.7892 H   0  0  0  0  0  0  0  0  0  0  0  0
   21.1907   18.5432   23.6669 C   0  0  0  0  0  0  0  0  0  0  0  0
   22.2536   18.3302   23.8470 H   0  0  0  0  0  0  0  0  0  0  0  0
   20.6997   18.4892   24.6477 H   0  0  0  0  0  0  0  0  0  0  0  0
   21.0509   19.9724   23.0893 C   0  0  0  0  0  0  0  0  0  0  0  0
   21.5226   20.0152   22.0978 H   0  0  0  0  0  0  0  0  0  0  0  0
   19.9902   20.2193   22.9475 H   0  0  0  0  0  0  0  0  0  0  0  0
   21.6969   21.0301   24.0117 C   0  0  0  0  0  0  0  0  0  0  0  0
   22.7622   20.7993   24.1527 H   0  0  0  0  0  0  0  0  0  0  0  0
   21.2301   20.9906   25.0060 H   0  0  0  0  0  0  0  0  0  0  0  0
   21.5542   22.4552   23.4358 C   0  0  0  0  0  0  0  0  0  0  0  0
   22.0414   22.5354   22.4553 H   0  0  0  0  0  0  0  0  0  0  0  0
   22.0193   23.1917   24.1040 H   0  0  0  0  0  0  0  0  0  0  0  0
   20.4979   22.7291   23.3162 H   0  0  0  0  0  0  0  0  0  0  0  0
   16.7694   17.7419   23.2011 C   0  0  0  0  0  0  0  0  0  0  0  0
   16.4939   16.9391   22.5136 H   0  0  0  0  0  0  0  0  0  0  0  0
   16.1318   17.7037   24.0872 H   0  0  0  0  0  0  0  0  0  0  0  0
   16.6554   18.7086   22.7058 H   0  0  0  0  0  0  0  0  0  0  0  0
  1  2  1  0  0  0  0
  1  3  1  0  0  0  0
  1  4  1  0  0  0  0
  4  5  1  0  0  0  0
  4  6  1  0  0  0  0
  4  7  1  0  0  0  0
  7  8  1  0  0  0  0
  7  9  1  0  0  0  0
  7 10  1  0  0  0  0
 10 11  1  0  0  0  0
 10 12  1  0  0  0  0
 10 13  1  0  0  0  0
 13 14  1  0  0  0  0
 13 15  1  0  0  0  0
 13 16  1  0  0  0  0
 16 17  1  0  0  0  0
 16 18  1  0  0  0  0
 16 19  1  0  0  0  0
 19 20  1  0  0  0  0
 19 21  1  0  0  0  0
 19 22  1  0  0  0  0
  1 23  1  0  0  0  0
 23 24  1  0  0  0  0
 23 25  1  0  0  0  0
 23 26  1  0  0  0  0
M  END
> <VConfSearch Rank>
120

> <Conf_Id>
73

> <Delta U+W>
0.884

> <U+W>
22.726

> <U>
71.905

> <W>
-49.179

> <W(PB)>
-51.494

> <W(SA)>
2.315

> <Valence>
2.125

> <Coulomb>
69.686

> <VdW>
0.093

> <VdW6>
-6.766

> <VdW12>
6.859

> <Bond>
0.169

> <Angle>
0.621

> <Pdih>
1.336

> <Idih>
0.000

> <Tether>
0.000

$$$$
VeraChem MOL file


 26 25  0  0  0  0  0  0  0  0999 V2000     
   19.3040   21.4257   21.1897 N   0  3  0  0  0  0  0  0  0  0  0  0
   18.4353   21.7168   21.6645 H   0  0  0  0  0  0  0  0  0  0  0  0
   19.0035   20.7952   20.4300 H   0  0  0  0  0  0  0  0  0  0  0  0
   20.2061   20.6860   22.1571 C   0  0  0  0  0  0  0  0  0  0  0  0
   20.4939   21.3838   22.9475 H   0  0  0  0  0  0  0  0  0  0  0  0
   21.1074   20.3891   21.6149 H   0  0  0  0  0  0  0  0  0  0  0  0
   19.5430   19.4436   22.7792 C   0  0  0  0  0  0  0  0  0  0  0  0
   18.6292   19.7442   23.3089 H   0  0  0  0  0  0  0  0  0  0  0  0
   19.2407   18.7529   21.9807 H   0  0  0  0  0  0  0  0  0  0  0  0
   20.4979   18.7230   23.7566 C   0  0  0  0  0  0  0  0  0  0  0  0
   20.8024   19.4189   24.5509 H   0  0  0  0  0  0  0  0  0  0  0  0
   21.4133   18.4289   23.2242 H   0  0  0  0  0  0  0  0  0  0  0  0
   19.8427   17.4732   24.3875 C   0  0  0  0  0  0  0  0  0  0  0  0
   18.9274   17.7671   24.9200 H   0  0  0  0  0  0  0  0  0  0  0  0
   19.5382   16.7772   23.5935 H   0  0  0  0  0  0  0  0  0  0  0  0
   20.7979   16.7527   25.3650 C   0  0  0  0  0  0  0  0  0  0  0  0
   21.1035   17.4441   26.1628 H   0  0  0  0  0  0  0  0  0  0  0  0
   21.7142   16.4543   24.8365 H   0  0  0  0  0  0  0  0  0  0  0  0
   20.1402   15.5053   25.9931 C   0  0  0  0  0  0  0  0  0  0  0  0
   20.8334   15.0077   26.6836 H   0  0  0  0  0  0  0  0  0  0  0  0
   19.8543   14.7787   25.2213 H   0  0  0  0  0  0  0  0  0  0  0  0
   19.2388   15.7763   26.5581 H   0  0  0  0  0  0  0  0  0  0  0  0
   20.0337   22.6355   20.6225 C   0  0  0  0  0  0  0  0  0  0  0  0
   20.9306   22.3002   20.0970 H   0  0  0  0  0  0  0  0  0  0  0  0
   19.3732   23.1590   19.9277 H   0  0  0  0  0  0  0  0  0  0  0  0
   20.3121   23.3032   21.4408 H   0  0  0  0  0  0  0  0  0  0  0  0
  1  2  1  0  0  0  0
  1  3  1  0  0  0  0
  1  4  1  0  0  0  0
  4  5  1  0  0  0  0
  4  6  1  0  0  0  0
  4  7  1  0  0  0  0
  7  8  1  0  0  0  0
  7  9  1  0  0  0  0
  7 10  1  0  0  0  0
 10 11  1  0  0  0  0
 10 12  1  0  0  0  0
 10 13  1  0  0  0  0
 13 14  1  0  0  0  0
 13 15  1  0  0  0  0
 13 16  1  0  0  0  0
 16 17  1  0  0  0  0
 16 18  1  0  0  0  0
 16 19  1  0  0  0  0
 19 20  1  0  0  0  0
 19 21  1  0  0  0  0
 19 22  1  0  0  0  0
  1 23  1  0  0  0  0
 23 24  1  0  0  0  0
 23 25  1  0  0  0  0
 23 26  1  0  0  0  0
M  END
> <VConfSearch Rank>
121

> <Conf_Id>
11

> <Delta U+W>
0.000

> <U+W>
21.842

> <U>
70.357

> <W>
-48.515

> <W(PB)>
-50.856

> <W(SA)>
2.341

> <Valence>
1.714

> <Coulomb>
68.480

> <VdW>
0.163

> <VdW6>
-5.268

> <VdW12>
5.431

> <Bond>
0.126

> <Angle>
0.350

> <Pdih>
1.238

> <Idih>
0.000

> <Tether>
0.000

$$$$
VeraChem MOL file


 26 25  0  0  0  0  0  0  0  0999 V2000     
   16.9584   20.5215   23.1688 N   0  3  0  0  0  0  0  0  0  0  0  0
   16.5574   21.4510   22.9657 H   0  0  0  0  0  0  0  0  0  0  0  0
   16.7626   20.3603   24.1689 H   0  0  0  0  0  0  0  0  0  0  0  0
   18.4580   20.5506   22.9249 C   0  0  0  0  0  0  0  0  0  0  0  0
   18.8535   21.4299   23.4397 H   0  0  0  0  0  0  0  0  0  0  0  0
   18.6222   20.6832   21.8526 H   0  0  0  0  0  0  0  0  0  0  0  0
   19.2116   19.2994   23.4201 C   0  0  0  0  0  0  0  0  0  0  0  0
   19.0009   19.1459   24.4868 H   0  0  0  0  0  0  0  0  0  0  0  0
   18.8462   18.4113   22.8885 H   0  0  0  0  0  0  0  0  0  0  0  0
   20.7352   19.4375   23.2056 C   0  0  0  0  0  0  0  0  0  0  0  0
   21.1006   20.3278   23.7363 H   0  0  0  0  0  0  0  0  0  0  0  0
   20.9413   19.5974   22.1380 H   0  0  0  0  0  0  0  0  0  0  0  0
   21.5030   18.1900   23.6992 C   0  0  0  0  0  0  0  0  0  0  0  0
   21.2968   18.0299   24.7666 H   0  0  0  0  0  0  0  0  0  0  0  0
   21.1380   17.2997   23.1684 H   0  0  0  0  0  0  0  0  0  0  0  0
   23.0268   18.3285   23.4845 C   0  0  0  0  0  0  0  0  0  0  0  0
   23.3973   19.2164   24.0157 H   0  0  0  0  0  0  0  0  0  0  0  0
   23.2385   18.4865   22.4176 H   0  0  0  0  0  0  0  0  0  0  0  0
   23.7901   17.0810   23.9784 C   0  0  0  0  0  0  0  0  0  0  0  0
   24.8697   17.1981   23.8176 H   0  0  0  0  0  0  0  0  0  0  0  0
   23.4654   16.1807   23.4407 H   0  0  0  0  0  0  0  0  0  0  0  0
   23.6255   16.9164   25.0513 H   0  0  0  0  0  0  0  0  0  0  0  0
   16.2783   19.4648   22.3056 C   0  0  0  0  0  0  0  0  0  0  0  0
   16.6614   18.4779   22.5726 H   0  0  0  0  0  0  0  0  0  0  0  0
   15.2007   19.4998   22.4810 H   0  0  0  0  0  0  0  0  0  0  0  0
   16.4873   19.6719   21.2538 H   0  0  0  0  0  0  0  0  0  0  0  0
  1  2  1  0  0  0  0
  1  3  1  0  0  0  0
  1  4  1  0  0  0  0
  4  5  1  0  0  0  0
  4  6  1  0  0  0  0
  4  7  1  0  0  0  0
  7  8  1  0  0  0  0
  7  9  1  0  0  0  0
  7 10  1  0  0  0  0
 10 11  1  0  0  0  0
 10 12  1  0  0  0  0
 10 13  1  0  0  0  0
 13 14  1  0  0  0  0
 13 15  1  0  0  0  0
 13 16  1  0  0  0  0
 16 17  1  0  0  0  0
 16 18  1  0  0  0  0
 16 19  1  0  0  0  0
 19 20  1  0  0  0  0
 19 21  1  0  0  0  0
 19 22  1  0  0  0  0
  1 23  1  0  0  0  0
 23 24  1  0  0  0  0
 23 25  1  0  0  0  0
 23 26  1  0  0  0  0
M  END
> <VConfSearch Rank>
122

> <Conf_Id>
102

> <Delta U+W>
0.121

> <U+W>
21.963

> <U>
70.745

> <W>
-48.782

> <W(PB)>
-51.111

> <W(SA)>
2.329

> <Valence>
1.993

> <Coulomb>
68.323

> <VdW>
0.429

> <VdW6>
-5.973

> <VdW12>
6.402

> <Bond>
0.161

> <Angle>
0.472

> <Pdih>
1.360

> <Idih>
0.000

> <Tether>
0.000

$$$$
VeraChem MOL file


 26 25  0  0  0  0  0  0  0  0999 V2000     
   17.9103   20.0574   25.6369 N   0  3  0  0  0  0  0  0  0  0  0  0
   17.0788   19.7638   25.1012 H   0  0  0  0  0  0  0  0  0  0  0  0
   17.6282   20.9318   26.1079 H   0  0  0  0  0  0  0  0  0  0  0  0
   19.0696   20.3383   24.6955 C   0  0  0  0  0  0  0  0  0  0  0  0
   19.9382   20.6068   25.3020 H   0  0  0  0  0  0  0  0  0  0  0  0
   18.7950   21.2079   24.0930 H   0  0  0  0  0  0  0  0  0  0  0  0
   19.4279   19.1701   23.7545 C   0  0  0  0  0  0  0  0  0  0  0  0
   19.7362   18.2982   24.3458 H   0  0  0  0  0  0  0  0  0  0  0  0
   18.5365   18.8746   23.1853 H   0  0  0  0  0  0  0  0  0  0  0  0
   20.5619   19.5587   22.7802 C   0  0  0  0  0  0  0  0  0  0  0  0
   21.4497   19.8599   23.3537 H   0  0  0  0  0  0  0  0  0  0  0  0
   20.2539   20.4328   22.1896 H   0  0  0  0  0  0  0  0  0  0  0  0
   20.9301   18.3964   21.8300 C   0  0  0  0  0  0  0  0  0  0  0  0
   21.2385   17.5224   22.4204 H   0  0  0  0  0  0  0  0  0  0  0  0
   20.0424   18.0949   21.2568 H   0  0  0  0  0  0  0  0  0  0  0  0
   22.0643   18.7854   20.8556 C   0  0  0  0  0  0  0  0  0  0  0  0
   22.9556   19.0857   21.4243 H   0  0  0  0  0  0  0  0  0  0  0  0
   21.7596   19.6579   20.2606 H   0  0  0  0  0  0  0  0  0  0  0  0
   22.4293   17.6223   19.9086 C   0  0  0  0  0  0  0  0  0  0  0  0
   22.7713   16.7454   20.4736 H   0  0  0  0  0  0  0  0  0  0  0  0
   23.2357   17.9176   19.2248 H   0  0  0  0  0  0  0  0  0  0  0  0
   21.5658   17.3220   19.3009 H   0  0  0  0  0  0  0  0  0  0  0  0
   18.2844   19.0071   26.6767 C   0  0  0  0  0  0  0  0  0  0  0  0
   19.1543   19.3532   27.2393 H   0  0  0  0  0  0  0  0  0  0  0  0
   17.4412   18.8602   27.3553 H   0  0  0  0  0  0  0  0  0  0  0  0
   18.5183   18.0668   26.1735 H   0  0  0  0  0  0  0  0  0  0  0  0
  1  2  1  0  0  0  0
  1  3  1  0  0  0  0
  1  4  1  0  0  0  0
  4  5  1  0  0  0  0
  4  6  1  0  0  0  0
  4  7  1  0  0  0  0
  7  8  1  0  0  0  0
  7  9  1  0  0  0  0
  7 10  1  0  0  0  0
 10 11  1  0  0  0  0
 10 12  1  0  0  0  0
 10 13  1  0  0  0  0
 13 14  1  0  0  0  0
 13 15  1  0  0  0  0
 13 16  1  0  0  0  0
 16 17  1  0  0  0  0
 16 18  1  0  0  0  0
 16 19  1  0  0  0  0
 19 20  1  0  0  0  0
 19 21  1  0  0  0  0
 19 22  1  0  0  0  0
  1 23  1  0  0  0  0
 23 24  1  0  0  0  0
 23 25  1  0  0  0  0
 23 26  1  0  0  0  0
M  END
> <VConfSearch Rank>
123

> <Conf_Id>
37

> <Delta U+W>
0.125

> <U+W>
21.967

> <U>
70.745

> <W>
-48.778

> <W(PB)>
-51.115

> <W(SA)>
2.337

> <Valence>
1.993

> <Coulomb>
68.323

> <VdW>
0.429

> <VdW6>
-5.973

> <VdW12>
6.403

> <Bond>
0.161

> <Angle>
0.472

> <Pdih>
1.360

> <Idih>
0.000

> <Tether>
0.000

$$$$
VeraChem MOL file


 26 25  0  0  0  0  0  0  0  0999 V2000     
   20.1676   16.2859   22.1315 N   0  3  0  0  0  0  0  0  0  0  0  0
   19.2787   15.7856   22.2876 H   0  0  0  0  0  0  0  0  0  0  0  0
   20.8257   15.8993   22.8258 H   0  0  0  0  0  0  0  0  0  0  0  0
   19.9786   17.7719   22.3610 C   0  0  0  0  0  0  0  0  0  0  0  0
   19.2693   18.1388   21.6149 H   0  0  0  0  0  0  0  0  0  0  0  0
   20.9413   18.2594   22.1907 H   0  0  0  0  0  0  0  0  0  0  0  0
   19.4648   18.1089   23.7741 C   0  0  0  0  0  0  0  0  0  0  0  0
   18.5211   17.5749   23.9482 H   0  0  0  0  0  0  0  0  0  0  0  0
   20.1772   17.7409   24.5243 H   0  0  0  0  0  0  0  0  0  0  0  0
   19.2282   19.6239   23.9810 C   0  0  0  0  0  0  0  0  0  0  0  0
   18.7603   19.7672   24.9636 H   0  0  0  0  0  0  0  0  0  0  0  0
   18.5064   19.9870   23.2363 H   0  0  0  0  0  0  0  0  0  0  0  0
   20.5310   20.4599   23.8984 C   0  0  0  0  0  0  0  0  0  0  0  0
   21.2447   20.1098   24.6570 H   0  0  0  0  0  0  0  0  0  0  0  0
   21.0111   20.2972   22.9245 H   0  0  0  0  0  0  0  0  0  0  0  0
   20.2991   21.9808   24.0717 C   0  0  0  0  0  0  0  0  0  0  0  0
   19.5945   22.3390   23.3081 H   0  0  0  0  0  0  0  0  0  0  0  0
   21.2468   22.5047   23.8841 H   0  0  0  0  0  0  0  0  0  0  0  0
   19.7864   22.3709   25.4769 C   0  0  0  0  0  0  0  0  0  0  0  0
   18.7811   21.9744   25.6650 H   0  0  0  0  0  0  0  0  0  0  0  0
   19.7330   23.4628   25.5764 H   0  0  0  0  0  0  0  0  0  0  0  0
   20.4571   21.9956   26.2606 H   0  0  0  0  0  0  0  0  0  0  0  0
   20.6773   16.0408   20.7180 C   0  0  0  0  0  0  0  0  0  0  0  0
   21.6337   16.5518   20.5874 H   0  0  0  0  0  0  0  0  0  0  0  0
   20.8089   14.9672   20.5659 H   0  0  0  0  0  0  0  0  0  0  0  0
   19.9497   16.4284   20.0016 H   0  0  0  0  0  0  0  0  0  0  0  0
  1  2  1  0  0  0  0
  1  3  1  0  0  0  0
  1  4  1  0  0  0  0
  4  5  1  0  0  0  0
  4  6  1  0  0  0  0
  4  7  1  0  0  0  0
  7  8  1  0  0  0  0
  7  9  1  0  0  0  0
  7 10  1  0  0  0  0
 10 11  1  0  0  0  0
 10 12  1  0  0  0  0
 10 13  1  0  0  0  0
 13 14  1  0  0  0  0
 13 15  1  0  0  0  0
 13 16  1  0  0  0  0
 16 17  1  0  0  0  0
 16 18  1  0  0  0  0
 16 19  1  0  0  0  0
 19 20  1  0  0  0  0
 19 21  1  0  0  0  0
 19 22  1  0  0  0  0
  1 23  1  0  0  0  0
 23 24  1  0  0  0  0
 23 25  1  0  0  0  0
 23 26  1  0  0  0  0
M  END
> <VConfSearch Rank>
124

> <Conf_Id>
137

> <Delta U+W>
1.038

> <U+W>
22.880

> <U>
71.810

> <W>
-48.930

> <W(PB)>
-51.257

> <W(SA)>
2.327

> <Valence>
2.568

> <Coulomb>
68.877

> <VdW>
0.364

> <VdW6>
-6.470

> <VdW12>
6.834

> <Bond>
0.191

> <Angle>
0.752

> <Pdih>
1.626

> <Idih>
0.000

> <Tether>
0.000

$$$$
VeraChem MOL file


 26 25  0  0  0  0  0  0  0  0999 V2000     
   20.4312   18.4974   26.1917 N   0  3  0  0  0  0  0  0  0  0  0  0
   19.5690   19.0423   26.3481 H   0  0  0  0  0  0  0  0  0  0  0  0
   21.2063   19.1657   26.3241 H   0  0  0  0  0  0  0  0  0  0  0  0
   20.4524   17.9452   24.7804 C   0  0  0  0  0  0  0  0  0  0  0  0
   19.6144   17.2508   24.6794 H   0  0  0  0  0  0  0  0  0  0  0  0
   21.3817   17.3840   24.6541 H   0  0  0  0  0  0  0  0  0  0  0  0
   20.3546   19.0356   23.6981 C   0  0  0  0  0  0  0  0  0  0  0  0
   19.4278   19.6038   23.8468 H   0  0  0  0  0  0  0  0  0  0  0  0
   21.1892   19.7398   23.8137 H   0  0  0  0  0  0  0  0  0  0  0  0
   20.3827   18.4230   22.2779 C   0  0  0  0  0  0  0  0  0  0  0  0
   19.5198   17.7556   22.1450 H   0  0  0  0  0  0  0  0  0  0  0  0
   21.2773   17.7923   22.1794 H   0  0  0  0  0  0  0  0  0  0  0  0
   20.4005   19.4801   21.1462 C   0  0  0  0  0  0  0  0  0  0  0  0
   21.2731   20.1365   21.2687 H   0  0  0  0  0  0  0  0  0  0  0  0
   20.5384   18.9611   20.1875 H   0  0  0  0  0  0  0  0  0  0  0  0
   19.1117   20.3334   21.0743 C   0  0  0  0  0  0  0  0  0  0  0  0
   18.9950   20.9230   21.9933 H   0  0  0  0  0  0  0  0  0  0  0  0
   18.2342   19.6755   21.0040 H   0  0  0  0  0  0  0  0  0  0  0  0
   19.1303   21.2919   19.8643 C   0  0  0  0  0  0  0  0  0  0  0  0
   19.9810   21.9833   19.9216 H   0  0  0  0  0  0  0  0  0  0  0  0
   18.2111   21.8910   19.8302 H   0  0  0  0  0  0  0  0  0  0  0  0
   19.2046   20.7359   18.9206 H   0  0  0  0  0  0  0  0  0  0  0  0
   20.5318   17.3572   27.1956 C   0  0  0  0  0  0  0  0  0  0  0  0
   21.4665   16.8163   27.0323 H   0  0  0  0  0  0  0  0  0  0  0  0
   20.5155   17.7684   28.2074 H   0  0  0  0  0  0  0  0  0  0  0  0
   19.6844   16.6819   27.0582 H   0  0  0  0  0  0  0  0  0  0  0  0
  1  2  1  0  0  0  0
  1  3  1  0  0  0  0
  1  4  1  0  0  0  0
  4  5  1  0  0  0  0
  4  6  1  0  0  0  0
  4  7  1  0  0  0  0
  7  8  1  0  0  0  0
  7  9  1  0  0  0  0
  7 10  1  0  0  0  0
 10 11  1  0  0  0  0
 10 12  1  0  0  0  0
 10 13  1  0  0  0  0
 13 14  1  0  0  0  0
 13 15  1  0  0  0  0
 13 16  1  0  0  0  0
 16 17  1  0  0  0  0
 16 18  1  0  0  0  0
 16 19  1  0  0  0  0
 19 20  1  0  0  0  0
 19 21  1  0  0  0  0
 19 22  1  0  0  0  0
  1 23  1  0  0  0  0
 23 24  1  0  0  0  0
 23 25  1  0  0  0  0
 23 26  1  0  0  0  0
M  END
> <VConfSearch Rank>
125

> <Conf_Id>
35

> <Delta U+W>
0.670

> <U+W>
22.512

> <U>
71.348

> <W>
-48.837

> <W(PB)>
-51.150

> <W(SA)>
2.313

> <Valence>
2.262

> <Coulomb>
68.807

> <VdW>
0.280

> <VdW6>
-5.915

> <VdW12>
6.195

> <Bond>
0.164

> <Angle>
0.622

> <Pdih>
1.475

> <Idih>
0.000

> <Tether>
0.000

$$$$
VeraChem MOL file


 26 25  0  0  0  0  0  0  0  0999 V2000     
   19.3433   20.5349   20.8024 N   0  3  0  0  0  0  0  0  0  0  0  0
   18.4165   20.0966   20.6847 H   0  0  0  0  0  0  0  0  0  0  0  0
   20.0057   19.9115   20.3152 H   0  0  0  0  0  0  0  0  0  0  0  0
   19.6958   20.6256   22.2736 C   0  0  0  0  0  0  0  0  0  0  0  0
   18.9683   21.2860   22.7524 H   0  0  0  0  0  0  0  0  0  0  0  0
   20.6837   21.0860   22.3540 H   0  0  0  0  0  0  0  0  0  0  0  0
   19.7016   19.2598   22.9839 C   0  0  0  0  0  0  0  0  0  0  0  0
   18.7119   18.7940   22.8865 H   0  0  0  0  0  0  0  0  0  0  0  0
   20.4213   18.6002   22.4830 H   0  0  0  0  0  0  0  0  0  0  0  0
   20.0638   19.4055   24.4808 C   0  0  0  0  0  0  0  0  0  0  0  0
   19.3818   20.1326   24.9434 H   0  0  0  0  0  0  0  0  0  0  0  0
   21.0743   19.8262   24.5784 H   0  0  0  0  0  0  0  0  0  0  0  0
   19.9757   18.0774   25.2728 C   0  0  0  0  0  0  0  0  0  0  0  0
   20.1327   18.2966   26.3380 H   0  0  0  0  0  0  0  0  0  0  0  0
   18.9604   17.6656   25.1901 H   0  0  0  0  0  0  0  0  0  0  0  0
   21.0074   17.0164   24.8211 C   0  0  0  0  0  0  0  0  0  0  0  0
   22.0191   17.4446   24.8542 H   0  0  0  0  0  0  0  0  0  0  0  0
   20.8195   16.7233   23.7797 H   0  0  0  0  0  0  0  0  0  0  0  0
   20.9561   15.7569   25.7121 C   0  0  0  0  0  0  0  0  0  0  0  0
   21.1805   16.0031   26.7582 H   0  0  0  0  0  0  0  0  0  0  0  0
   21.6914   15.0142   25.3763 H   0  0  0  0  0  0  0  0  0  0  0  0
   19.9639   15.2884   25.6765 H   0  0  0  0  0  0  0  0  0  0  0  0
   19.3601   21.9238   20.1791 C   0  0  0  0  0  0  0  0  0  0  0  0
   20.3585   22.3535   20.2864 H   0  0  0  0  0  0  0  0  0  0  0  0
   19.1046   21.8442   19.1200 H   0  0  0  0  0  0  0  0  0  0  0  0
   18.6287   22.5550   20.6885 H   0  0  0  0  0  0  0  0  0  0  0  0
  1  2  1  0  0  0  0
  1  3  1  0  0  0  0
  1  4  1  0  0  0  0
  4  5  1  0  0  0  0
  4  6  1  0  0  0  0
  4  7  1  0  0  0  0
  7  8  1  0  0  0  0
  7  9  1  0  0  0  0
  7 10  1  0  0  0  0
 10 11  1  0  0  0  0
 10 12  1  0  0  0  0
 10 13  1  0  0  0  0
 13 14  1  0  0  0  0
 13 15  1  0  0  0  0
 13 16  1  0  0  0  0
 16 17  1  0  0  0  0
 16 18  1  0  0  0  0
 16 19  1  0  0  0  0
 19 20  1  0  0  0  0
 19 21  1  0  0  0  0
 19 22  1  0  0  0  0
  1 23  1  0  0  0  0
 23 24  1  0  0  0  0
 23 25  1  0  0  0  0
 23 26  1  0  0  0  0
M  END
> <VConfSearch Rank>
126

> <Conf_Id>
36

> <Delta U+W>
0.662

> <U+W>
22.504

> <U>
71.348

> <W>
-48.844

> <W(PB)>
-51.157

> <W(SA)>
2.313

> <Valence>
2.262

> <Coulomb>
68.807

> <VdW>
0.280

> <VdW6>
-5.916

> <VdW12>
6.195

> <Bond>
0.164

> <Angle>
0.622

> <Pdih>
1.475

> <Idih>
0.000

> <Tether>
0.000

$$$$
VeraChem MOL file


 26 25  0  0  0  0  0  0  0  0999 V2000     
   19.0085   21.4132   24.8717 N   0  3  0  0  0  0  0  0  0  0  0  0
   18.1120   20.9647   25.1162 H   0  0  0  0  0  0  0  0  0  0  0  0
   18.7553   22.2625   24.3429 H   0  0  0  0  0  0  0  0  0  0  0  0
   19.8382   20.4863   24.0063 C   0  0  0  0  0  0  0  0  0  0  0  0
   20.0783   19.6020   24.6013 H   0  0  0  0  0  0  0  0  0  0  0  0
   20.7706   21.0011   23.7615 H   0  0  0  0  0  0  0  0  0  0  0  0
   19.1236   20.0634   22.7083 C   0  0  0  0  0  0  0  0  0  0  0  0
   18.1858   19.5476   22.9542 H   0  0  0  0  0  0  0  0  0  0  0  0
   18.8486   20.9624   22.1407 H   0  0  0  0  0  0  0  0  0  0  0  0
   19.9984   19.1533   21.8139 C   0  0  0  0  0  0  0  0  0  0  0  0
   20.9237   19.6825   21.5468 H   0  0  0  0  0  0  0  0  0  0  0  0
   19.4644   18.9674   20.8717 H   0  0  0  0  0  0  0  0  0  0  0  0
   20.3444   17.7988   22.4784 C   0  0  0  0  0  0  0  0  0  0  0  0
   20.9220   17.9678   23.3971 H   0  0  0  0  0  0  0  0  0  0  0  0
   19.4179   17.2876   22.7744 H   0  0  0  0  0  0  0  0  0  0  0  0
   21.1552   16.8856   21.5320 C   0  0  0  0  0  0  0  0  0  0  0  0
   22.0831   17.3925   21.2319 H   0  0  0  0  0  0  0  0  0  0  0  0
   20.5827   16.7023   20.6118 H   0  0  0  0  0  0  0  0  0  0  0  0
   21.5011   15.5358   22.1963 C   0  0  0  0  0  0  0  0  0  0  0  0
   22.1043   15.6841   23.1015 H   0  0  0  0  0  0  0  0  0  0  0  0
   22.0759   14.9015   21.5090 H   0  0  0  0  0  0  0  0  0  0  0  0
   20.5914   14.9893   22.4774 H   0  0  0  0  0  0  0  0  0  0  0  0
   19.7836   21.7788   26.1300 C   0  0  0  0  0  0  0  0  0  0  0  0
   20.7114   22.2809   25.8472 H   0  0  0  0  0  0  0  0  0  0  0  0
   19.1752   22.4467   26.7441 H   0  0  0  0  0  0  0  0  0  0  0  0
   20.0108   20.8685   26.6891 H   0  0  0  0  0  0  0  0  0  0  0  0
  1  2  1  0  0  0  0
  1  3  1  0  0  0  0
  1  4  1  0  0  0  0
  4  5  1  0  0  0  0
  4  6  1  0  0  0  0
  4  7  1  0  0  0  0
  7  8  1  0  0  0  0
  7  9  1  0  0  0  0
  7 10  1  0  0  0  0
 10 11  1  0  0  0  0
 10 12  1  0  0  0  0
 10 13  1  0  0  0  0
 13 14  1  0  0  0  0
 13 15  1  0  0  0  0
 13 16  1  0  0  0  0
 16 17  1  0  0  0  0
 16 18  1  0  0  0  0
 16 19  1  0  0  0  0
 19 20  1  0  0  0  0
 19 21  1  0  0  0  0
 19 22  1  0  0  0  0
  1 23  1  0  0  0  0
 23 24  1  0  0  0  0
 23 25  1  0  0  0  0
 23 26  1  0  0  0  0
M  END
> <VConfSearch Rank>
127

> <Conf_Id>
46

> <Delta U+W>
0.496

> <U+W>
22.338

> <U>
71.138

> <W>
-48.799

> <W(PB)>
-51.136

> <W(SA)>
2.337

> <Valence>
2.016

> <Coulomb>
68.932

> <VdW>
0.190

> <VdW6>
-5.902

> <VdW12>
6.092

> <Bond>
0.149

> <Angle>
0.477

> <Pdih>
1.390

> <Idih>
0.000

> <Tether>
0.000

$$$$
VeraChem MOL file


 26 25  0  0  0  0  0  0  0  0999 V2000     
   22.6391   17.6835   23.3420 N   0  3  0  0  0  0  0  0  0  0  0  0
   23.0284   17.3801   22.4358 H   0  0  0  0  0  0  0  0  0  0  0  0
   22.3126   16.8201   23.8032 H   0  0  0  0  0  0  0  0  0  0  0  0
   21.4767   18.6302   23.1211 C   0  0  0  0  0  0  0  0  0  0  0  0
   21.8616   19.5235   22.6228 H   0  0  0  0  0  0  0  0  0  0  0  0
   21.0934   18.9208   24.1021 H   0  0  0  0  0  0  0  0  0  0  0  0
   20.3422   18.0154   22.2789 C   0  0  0  0  0  0  0  0  0  0  0  0
   20.7494   17.6877   21.3131 H   0  0  0  0  0  0  0  0  0  0  0  0
   19.9565   17.1168   22.7788 H   0  0  0  0  0  0  0  0  0  0  0  0
   19.1823   19.0068   22.0242 C   0  0  0  0  0  0  0  0  0  0  0  0
   18.4578   18.5346   21.3462 H   0  0  0  0  0  0  0  0  0  0  0  0
   19.5663   19.8928   21.4995 H   0  0  0  0  0  0  0  0  0  0  0  0
   18.4574   19.4411   23.3211 C   0  0  0  0  0  0  0  0  0  0  0  0
   18.1040   18.5511   23.8600 H   0  0  0  0  0  0  0  0  0  0  0  0
   19.1592   19.9593   23.9882 H   0  0  0  0  0  0  0  0  0  0  0  0
   17.2600   20.3717   23.0253 C   0  0  0  0  0  0  0  0  0  0  0  0
   16.5461   19.8600   22.3647 H   0  0  0  0  0  0  0  0  0  0  0  0
   17.6078   21.2636   22.4854 H   0  0  0  0  0  0  0  0  0  0  0  0
   16.5389   20.8055   24.3194 C   0  0  0  0  0  0  0  0  0  0  0  0
   16.1498   19.9360   24.8651 H   0  0  0  0  0  0  0  0  0  0  0  0
   15.6921   21.4648   24.0889 H   0  0  0  0  0  0  0  0  0  0  0  0
   17.2187   21.3515   24.9865 H   0  0  0  0  0  0  0  0  0  0  0  0
   23.7101   18.3654   24.1820 C   0  0  0  0  0  0  0  0  0  0  0  0
   24.5413   17.6731   24.3334 H   0  0  0  0  0  0  0  0  0  0  0  0
   24.0632   19.2569   23.6589 H   0  0  0  0  0  0  0  0  0  0  0  0
   23.2842   18.6471   25.1475 H   0  0  0  0  0  0  0  0  0  0  0  0
  1  2  1  0  0  0  0
  1  3  1  0  0  0  0
  1  4  1  0  0  0  0
  4  5  1  0  0  0  0
  4  6  1  0  0  0  0
  4  7  1  0  0  0  0
  7  8  1  0  0  0  0
  7  9  1  0  0  0  0
  7 10  1  0  0  0  0
 10 11  1  0  0  0  0
 10 12  1  0  0  0  0
 10 13  1  0  0  0  0
 13 14  1  0  0  0  0
 13 15  1  0  0  0  0
 13 16  1  0  0  0  0
 16 17  1  0  0  0  0
 16 18  1  0  0  0  0
 16 19  1  0  0  0  0
 19 20  1  0  0  0  0
 19 21  1  0  0  0  0
 19 22  1  0  0  0  0
  1 23  1  0  0  0  0
 23 24  1  0  0  0  0
 23 25  1  0  0  0  0
 23 26  1  0  0  0  0
M  END
> <VConfSearch Rank>
128

> <Conf_Id>
45

> <Delta U+W>
0.471

> <U+W>
22.313

> <U>
71.138

> <W>
-48.825

> <W(PB)>
-51.169

> <W(SA)>
2.344

> <Valence>
2.016

> <Coulomb>
68.932

> <VdW>
0.190

> <VdW6>
-5.902

> <VdW12>
6.092

> <Bond>
0.149

> <Angle>
0.477

> <Pdih>
1.390

> <Idih>
0.000

> <Tether>
0.000

$$$$
VeraChem MOL file


 26 25  0  0  0  0  0  0  0  0999 V2000     
   22.5816   19.7565   23.0709 N   0  3  0  0  0  0  0  0  0  0  0  0
   22.5050   18.7394   22.9196 H   0  0  0  0  0  0  0  0  0  0  0  0
   22.5654   19.8860   24.0944 H   0  0  0  0  0  0  0  0  0  0  0  0
   21.4020   20.4674   22.4362 C   0  0  0  0  0  0  0  0  0  0  0  0
   21.4482   20.3001   21.3572 H   0  0  0  0  0  0  0  0  0  0  0  0
   21.5234   21.5378   22.6210 H   0  0  0  0  0  0  0  0  0  0  0  0
   20.0327   20.0077   22.9742 C   0  0  0  0  0  0  0  0  0  0  0  0
   19.9961   20.1815   24.0570 H   0  0  0  0  0  0  0  0  0  0  0  0
   19.2543   20.6401   22.5271 H   0  0  0  0  0  0  0  0  0  0  0  0
   19.7351   18.5217   22.6519 C   0  0  0  0  0  0  0  0  0  0  0  0
   20.4545   17.8718   23.1677 H   0  0  0  0  0  0  0  0  0  0  0  0
   19.8823   18.3539   21.5758 H   0  0  0  0  0  0  0  0  0  0  0  0
   18.2963   18.0861   23.0238 C   0  0  0  0  0  0  0  0  0  0  0  0
   17.5709   18.7171   22.4919 H   0  0  0  0  0  0  0  0  0  0  0  0
   18.1375   17.0616   22.6599 H   0  0  0  0  0  0  0  0  0  0  0  0
   18.0100   18.1298   24.5437 C   0  0  0  0  0  0  0  0  0  0  0  0
   18.0887   19.1601   24.9153 H   0  0  0  0  0  0  0  0  0  0  0  0
   18.7648   17.5386   25.0810 H   0  0  0  0  0  0  0  0  0  0  0  0
   16.6040   17.5848   24.8741 C   0  0  0  0  0  0  0  0  0  0  0  0
   15.8246   18.1749   24.3746 H   0  0  0  0  0  0  0  0  0  0  0  0
   16.4165   17.6256   25.9550 H   0  0  0  0  0  0  0  0  0  0  0  0
   16.4996   16.5399   24.5539 H   0  0  0  0  0  0  0  0  0  0  0  0
   23.8829   20.2867   22.4852 C   0  0  0  0  0  0  0  0  0  0  0  0
   23.9563   21.3580   22.6849 H   0  0  0  0  0  0  0  0  0  0  0  0
   24.7233   19.7664   22.9500 H   0  0  0  0  0  0  0  0  0  0  0  0
   23.8900   20.1098   21.4074 H   0  0  0  0  0  0  0  0  0  0  0  0
  1  2  1  0  0  0  0
  1  3  1  0  0  0  0
  1  4  1  0  0  0  0
  4  5  1  0  0  0  0
  4  6  1  0  0  0  0
  4  7  1  0  0  0  0
  7  8  1  0  0  0  0
  7  9  1  0  0  0  0
  7 10  1  0  0  0  0
 10 11  1  0  0  0  0
 10 12  1  0  0  0  0
 10 13  1  0  0  0  0
 13 14  1  0  0  0  0
 13 15  1  0  0  0  0
 13 16  1  0  0  0  0
 16 17  1  0  0  0  0
 16 18  1  0  0  0  0
 16 19  1  0  0  0  0
 19 20  1  0  0  0  0
 19 21  1  0  0  0  0
 19 22  1  0  0  0  0
  1 23  1  0  0  0  0
 23 24  1  0  0  0  0
 23 25  1  0  0  0  0
 23 26  1  0  0  0  0
M  END
> <VConfSearch Rank>
129

> <Conf_Id>
143

> <Delta U+W>
0.915

> <U+W>
22.757

> <U>
71.994

> <W>
-49.237

> <W(PB)>
-51.537

> <W(SA)>
2.300

> <Valence>
2.376

> <Coulomb>
69.315

> <VdW>
0.303

> <VdW6>
-6.508

> <VdW12>
6.810

> <Bond>
0.182

> <Angle>
0.660

> <Pdih>
1.534

> <Idih>
0.000

> <Tether>
0.000

$$$$
VeraChem MOL file


 26 25  0  0  0  0  0  0  0  0999 V2000     
   19.8655   16.8369   24.6943 N   0  3  0  0  0  0  0  0  0  0  0  0
   20.3639   16.4947   23.8591 H   0  0  0  0  0  0  0  0  0  0  0  0
   18.8621   16.7168   24.4858 H   0  0  0  0  0  0  0  0  0  0  0  0
   20.1785   18.3029   24.9249 C   0  0  0  0  0  0  0  0  0  0  0  0
   21.2479   18.3919   25.1321 H   0  0  0  0  0  0  0  0  0  0  0  0
   19.6311   18.6187   25.8166 H   0  0  0  0  0  0  0  0  0  0  0  0
   19.8005   19.2190   23.7441 C   0  0  0  0  0  0  0  0  0  0  0  0
   18.7320   19.1054   23.5182 H   0  0  0  0  0  0  0  0  0  0  0  0
   19.9514   20.2571   24.0646 H   0  0  0  0  0  0  0  0  0  0  0  0
   20.6472   18.9434   22.4775 C   0  0  0  0  0  0  0  0  0  0  0  0
   20.5806   17.8790   22.2170 H   0  0  0  0  0  0  0  0  0  0  0  0
   21.7060   19.1378   22.6985 H   0  0  0  0  0  0  0  0  0  0  0  0
   20.2224   19.7654   21.2329 C   0  0  0  0  0  0  0  0  0  0  0  0
   20.8625   19.4522   20.3965 H   0  0  0  0  0  0  0  0  0  0  0  0
   19.1985   19.4994   20.9359 H   0  0  0  0  0  0  0  0  0  0  0  0
   20.3530   21.3027   21.3896 C   0  0  0  0  0  0  0  0  0  0  0  0
   20.6676   21.7272   20.4258 H   0  0  0  0  0  0  0  0  0  0  0  0
   21.1529   21.5481   22.1020 H   0  0  0  0  0  0  0  0  0  0  0  0
   19.0321   21.9923   21.8045 C   0  0  0  0  0  0  0  0  0  0  0  0
   18.6645   21.6337   22.7721 H   0  0  0  0  0  0  0  0  0  0  0  0
   18.2466   21.8147   21.0585 H   0  0  0  0  0  0  0  0  0  0  0  0
   19.1745   23.0778   21.8847 H   0  0  0  0  0  0  0  0  0  0  0  0
   20.2582   16.0240   25.9201 C   0  0  0  0  0  0  0  0  0  0  0  0
   19.6948   16.3828   26.7843 H   0  0  0  0  0  0  0  0  0  0  0  0
   20.0279   14.9714   25.7408 H   0  0  0  0  0  0  0  0  0  0  0  0
   21.3288   16.1418   26.1012 H   0  0  0  0  0  0  0  0  0  0  0  0
  1  2  1  0  0  0  0
  1  3  1  0  0  0  0
  1  4  1  0  0  0  0
  4  5  1  0  0  0  0
  4  6  1  0  0  0  0
  4  7  1  0  0  0  0
  7  8  1  0  0  0  0
  7  9  1  0  0  0  0
  7 10  1  0  0  0  0
 10 11  1  0  0  0  0
 10 12  1  0  0  0  0
 10 13  1  0  0  0  0
 13 14  1  0  0  0  0
 13 15  1  0  0  0  0
 13 16  1  0  0  0  0
 16 17  1  0  0  0  0
 16 18  1  0  0  0  0
 16 19  1  0  0  0  0
 19 20  1  0  0  0  0
 19 21  1  0  0  0  0
 19 22  1  0  0  0  0
  1 23  1  0  0  0  0
 23 24  1  0  0  0  0
 23 25  1  0  0  0  0
 23 26  1  0  0  0  0
M  END
> <VConfSearch Rank>
130

> <Conf_Id>
76

> <Delta U+W>
3.468

> <U+W>
25.310

> <U>
74.594

> <W>
-49.283

> <W(PB)>
-51.537

> <W(SA)>
2.253

> <Valence>
4.886

> <Coulomb>
69.332

> <VdW>
0.376

> <VdW6>
-7.329

> <VdW12>
7.705

> <Bond>
0.232

> <Angle>
1.251

> <Pdih>
3.403

> <Idih>
0.000

> <Tether>
0.000

$$$$
VeraChem MOL file


 26 25  0  0  0  0  0  0  0  0999 V2000     
   22.7429   19.2772   24.1895 N   0  3  0  0  0  0  0  0  0  0  0  0
   22.9367   18.5822   23.4518 H   0  0  0  0  0  0  0  0  0  0  0  0
   22.7231   18.7428   25.0721 H   0  0  0  0  0  0  0  0  0  0  0  0
   21.4001   19.9368   23.9475 C   0  0  0  0  0  0  0  0  0  0  0  0
   21.4607   20.4841   23.0034 H   0  0  0  0  0  0  0  0  0  0  0  0
   21.2301   20.6564   24.7523 H   0  0  0  0  0  0  0  0  0  0  0  0
   20.2313   18.9365   23.8916 C   0  0  0  0  0  0  0  0  0  0  0  0
   20.4219   18.2040   23.0994 H   0  0  0  0  0  0  0  0  0  0  0  0
   20.1864   18.3784   24.8362 H   0  0  0  0  0  0  0  0  0  0  0  0
   18.8832   19.6587   23.6538 C   0  0  0  0  0  0  0  0  0  0  0  0
   18.9313   20.2694   22.7415 H   0  0  0  0  0  0  0  0  0  0  0  0
   18.7232   20.3634   24.4819 H   0  0  0  0  0  0  0  0  0  0  0  0
   17.6684   18.6963   23.5870 C   0  0  0  0  0  0  0  0  0  0  0  0
   17.8488   17.8098   24.2105 H   0  0  0  0  0  0  0  0  0  0  0  0
   16.8049   19.2040   24.0387 H   0  0  0  0  0  0  0  0  0  0  0  0
   17.2583   18.2662   22.1551 C   0  0  0  0  0  0  0  0  0  0  0  0
   16.9780   19.1533   21.5699 H   0  0  0  0  0  0  0  0  0  0  0  0
   16.3515   17.6490   22.2234 H   0  0  0  0  0  0  0  0  0  0  0  0
   18.3412   17.4714   21.3930 C   0  0  0  0  0  0  0  0  0  0  0  0
   18.6918   16.6138   21.9815 H   0  0  0  0  0  0  0  0  0  0  0  0
   19.2027   18.1048   21.1484 H   0  0  0  0  0  0  0  0  0  0  0  0
   17.9395   17.0869   20.4466 H   0  0  0  0  0  0  0  0  0  0  0  0
   23.8389   20.3331   24.2293 C   0  0  0  0  0  0  0  0  0  0  0  0
   23.8625   20.8625   23.2743 H   0  0  0  0  0  0  0  0  0  0  0  0
   23.6301   21.0372   25.0378 H   0  0  0  0  0  0  0  0  0  0  0  0
   24.8004   19.8451   24.4044 H   0  0  0  0  0  0  0  0  0  0  0  0
  1  2  1  0  0  0  0
  1  3  1  0  0  0  0
  1  4  1  0  0  0  0
  4  5  1  0  0  0  0
  4  6  1  0  0  0  0
  4  7  1  0  0  0  0
  7  8  1  0  0  0  0
  7  9  1  0  0  0  0
  7 10  1  0  0  0  0
 10 11  1  0  0  0  0
 10 12  1  0  0  0  0
 10 13  1  0  0  0  0
 13 14  1  0  0  0  0
 13 15  1  0  0  0  0
 13 16  1  0  0  0  0
 16 17  1  0  0  0  0
 16 18  1  0  0  0  0
 16 19  1  0  0  0  0
 19 20  1  0  0  0  0
 19 21  1  0  0  0  0
 19 22  1  0  0  0  0
  1 23  1  0  0  0  0
 23 24  1  0  0  0  0
 23 25  1  0  0  0  0
 23 26  1  0  0  0  0
M  END
> <VConfSearch Rank>
131

> <Conf_Id>
123

> <Delta U+W>
3.101

> <U+W>
24.943

> <U>
74.070

> <W>
-49.127

> <W(PB)>
-51.421

> <W(SA)>
2.295

> <Valence>
4.690

> <Coulomb>
69.115

> <VdW>
0.266

> <VdW6>
-6.809

> <VdW12>
7.075

> <Bond>
0.212

> <Angle>
1.133

> <Pdih>
3.345

> <Idih>
0.000

> <Tether>
0.000

$$$$
VeraChem MOL file


 26 25  0  0  0  0  0  0  0  0999 V2000     
   20.0500   20.3486   21.0076 N   0  3  0  0  0  0  0  0  0  0  0  0
   19.0449   20.5336   20.8653 H   0  0  0  0  0  0  0  0  0  0  0  0
   20.1872   19.3583   20.7549 H   0  0  0  0  0  0  0  0  0  0  0  0
   20.4209   20.5714   22.4611 C   0  0  0  0  0  0  0  0  0  0  0  0
   20.2611   21.6297   22.6830 H   0  0  0  0  0  0  0  0  0  0  0  0
   21.4864   20.3563   22.5741 H   0  0  0  0  0  0  0  0  0  0  0  0
   19.6109   19.7138   23.4533 C   0  0  0  0  0  0  0  0  0  0  0  0
   19.8733   20.0274   24.4698 H   0  0  0  0  0  0  0  0  0  0  0  0
   18.5410   19.9289   23.3321 H   0  0  0  0  0  0  0  0  0  0  0  0
   19.8666   18.1950   23.2771 C   0  0  0  0  0  0  0  0  0  0  0  0
   20.9446   17.9833   23.3006 H   0  0  0  0  0  0  0  0  0  0  0  0
   19.5191   17.8955   22.2794 H   0  0  0  0  0  0  0  0  0  0  0  0
   19.1308   17.3215   24.3269 C   0  0  0  0  0  0  0  0  0  0  0  0
   18.2054   17.8155   24.6536 H   0  0  0  0  0  0  0  0  0  0  0  0
   18.8116   16.3919   23.8356 H   0  0  0  0  0  0  0  0  0  0  0  0
   19.9877   16.9270   25.5572 C   0  0  0  0  0  0  0  0  0  0  0  0
   20.8588   16.3436   25.2275 H   0  0  0  0  0  0  0  0  0  0  0  0
   19.3953   16.2544   26.1932 H   0  0  0  0  0  0  0  0  0  0  0  0
   20.4653   18.1221   26.4111 C   0  0  0  0  0  0  0  0  0  0  0  0
   19.6221   18.7587   26.7088 H   0  0  0  0  0  0  0  0  0  0  0  0
   21.1929   18.7361   25.8663 H   0  0  0  0  0  0  0  0  0  0  0  0
   20.9568   17.7672   27.3261 H   0  0  0  0  0  0  0  0  0  0  0  0
   20.8915   21.2489   20.1138 C   0  0  0  0  0  0  0  0  0  0  0  0
   21.9479   21.0125   20.2588 H   0  0  0  0  0  0  0  0  0  0  0  0
   20.6148   21.0781   19.0710 H   0  0  0  0  0  0  0  0  0  0  0  0
   20.7059   22.2921   20.3785 H   0  0  0  0  0  0  0  0  0  0  0  0
  1  2  1  0  0  0  0
  1  3  1  0  0  0  0
  1  4  1  0  0  0  0
  4  5  1  0  0  0  0
  4  6  1  0  0  0  0
  4  7  1  0  0  0  0
  7  8  1  0  0  0  0
  7  9  1  0  0  0  0
  7 10  1  0  0  0  0
 10 11  1  0  0  0  0
 10 12  1  0  0  0  0
 10 13  1  0  0  0  0
 13 14  1  0  0  0  0
 13 15  1  0  0  0  0
 13 16  1  0  0  0  0
 16 17  1  0  0  0  0
 16 18  1  0  0  0  0
 16 19  1  0  0  0  0
 19 20  1  0  0  0  0
 19 21  1  0  0  0  0
 19 22  1  0  0  0  0
  1 23  1  0  0  0  0
 23 24  1  0  0  0  0
 23 25  1  0  0  0  0
 23 26  1  0  0  0  0
M  END
> <VConfSearch Rank>
132

> <Conf_Id>
111

> <Delta U+W>
3.383

> <U+W>
25.225

> <U>
74.516

> <W>
-49.292

> <W(PB)>
-51.558

> <W(SA)>
2.266

> <Valence>
4.842

> <Coulomb>
69.333

> <VdW>
0.342

> <VdW6>
-7.369

> <VdW12>
7.711

> <Bond>
0.232

> <Angle>
1.153

> <Pdih>
3.457

> <Idih>
0.000

> <Tether>
0.000

$$$$
VeraChem MOL file


 26 25  0  0  0  0  0  0  0  0999 V2000     
   18.6933   18.3019   25.0934 N   0  3  0  0  0  0  0  0  0  0  0  0
   17.8531   17.7711   24.8159 H   0  0  0  0  0  0  0  0  0  0  0  0
   18.5819   19.2366   24.6727 H   0  0  0  0  0  0  0  0  0  0  0  0
   19.9379   17.6323   24.5447 C   0  0  0  0  0  0  0  0  0  0  0  0
   20.0125   16.6439   25.0052 H   0  0  0  0  0  0  0  0  0  0  0  0
   20.8033   18.2193   24.8611 H   0  0  0  0  0  0  0  0  0  0  0  0
   19.9411   17.4830   23.0091 C   0  0  0  0  0  0  0  0  0  0  0  0
   20.8528   16.9489   22.7098 H   0  0  0  0  0  0  0  0  0  0  0  0
   19.1005   16.8431   22.7097 H   0  0  0  0  0  0  0  0  0  0  0  0
   19.8607   18.8262   22.2400 C   0  0  0  0  0  0  0  0  0  0  0  0
   18.9111   19.3299   22.4642 H   0  0  0  0  0  0  0  0  0  0  0  0
   19.8402   18.6015   21.1658 H   0  0  0  0  0  0  0  0  0  0  0  0
   21.0448   19.7780   22.5480 C   0  0  0  0  0  0  0  0  0  0  0  0
   21.0808   19.9847   23.6257 H   0  0  0  0  0  0  0  0  0  0  0  0
   21.9929   19.2827   22.2968 H   0  0  0  0  0  0  0  0  0  0  0  0
   20.9570   21.1320   21.8026 C   0  0  0  0  0  0  0  0  0  0  0  0
   21.7641   21.7849   22.1634 H   0  0  0  0  0  0  0  0  0  0  0  0
   20.0157   21.6379   22.0593 H   0  0  0  0  0  0  0  0  0  0  0  0
   21.0748   21.0002   20.2669 C   0  0  0  0  0  0  0  0  0  0  0  0
   20.2197   20.4616   19.8405 H   0  0  0  0  0  0  0  0  0  0  0  0
   21.9926   20.4679   19.9852 H   0  0  0  0  0  0  0  0  0  0  0  0
   21.1055   21.9921   19.7979 H   0  0  0  0  0  0  0  0  0  0  0  0
   18.7852   18.4055   26.6093 C   0  0  0  0  0  0  0  0  0  0  0  0
   17.8836   18.8901   26.9907 H   0  0  0  0  0  0  0  0  0  0  0  0
   18.8720   17.4025   27.0330 H   0  0  0  0  0  0  0  0  0  0  0  0
   19.6634   18.9974   26.8763 H   0  0  0  0  0  0  0  0  0  0  0  0
  1  2  1  0  0  0  0
  1  3  1  0  0  0  0
  1  4  1  0  0  0  0
  4  5  1  0  0  0  0
  4  6  1  0  0  0  0
  4  7  1  0  0  0  0
  7  8  1  0  0  0  0
  7  9  1  0  0  0  0
  7 10  1  0  0  0  0
 10 11  1  0  0  0  0
 10 12  1  0  0  0  0
 10 13  1  0  0  0  0
 13 14  1  0  0  0  0
 13 15  1  0  0  0  0
 13 16  1  0  0  0  0
 16 17  1  0  0  0  0
 16 18  1  0  0  0  0
 16 19  1  0  0  0  0
 19 20  1  0  0  0  0
 19 21  1  0  0  0  0
 19 22  1  0  0  0  0
  1 23  1  0  0  0  0
 23 24  1  0  0  0  0
 23 25  1  0  0  0  0
 23 26  1  0  0  0  0
M  END
> <VConfSearch Rank>
133

> <Conf_Id>
126

> <Delta U+W>
1.519

> <U+W>
23.361

> <U>
72.579

> <W>
-49.218

> <W(PB)>
-51.496

> <W(SA)>
2.279

> <Valence>
2.678

> <Coulomb>
69.622

> <VdW>
0.279

> <VdW6>
-7.328

> <VdW12>
7.608

> <Bond>
0.212

> <Angle>
0.911

> <Pdih>
1.555

> <Idih>
0.000

> <Tether>
0.000

$$$$
VeraChem MOL file


 26 25  0  0  0  0  0  0  0  0999 V2000     
   19.4373   17.4863   24.9204 N   0  3  0  0  0  0  0  0  0  0  0  0
   19.3882   18.5044   25.0758 H   0  0  0  0  0  0  0  0  0  0  0  0
   20.2068   17.1510   25.5205 H   0  0  0  0  0  0  0  0  0  0  0  0
   19.7484   17.1994   23.4645 C   0  0  0  0  0  0  0  0  0  0  0  0
   18.9125   17.5644   22.8633 H   0  0  0  0  0  0  0  0  0  0  0  0
   19.8031   16.1144   23.3453 H   0  0  0  0  0  0  0  0  0  0  0  0
   21.0643   17.8355   22.9703 C   0  0  0  0  0  0  0  0  0  0  0  0
   21.9021   17.4165   23.5433 H   0  0  0  0  0  0  0  0  0  0  0  0
   21.2289   17.5365   21.9265 H   0  0  0  0  0  0  0  0  0  0  0  0
   21.0991   19.3817   23.0698 C   0  0  0  0  0  0  0  0  0  0  0  0
   22.0832   19.7222   22.7224 H   0  0  0  0  0  0  0  0  0  0  0  0
   21.0229   19.6913   24.1205 H   0  0  0  0  0  0  0  0  0  0  0  0
   19.9884   20.0723   22.2377 C   0  0  0  0  0  0  0  0  0  0  0  0
   20.0833   19.7837   21.1818 H   0  0  0  0  0  0  0  0  0  0  0  0
   19.0043   19.7148   22.5680 H   0  0  0  0  0  0  0  0  0  0  0  0
   20.0014   21.6161   22.3536 C   0  0  0  0  0  0  0  0  0  0  0  0
   19.8945   21.9113   23.4068 H   0  0  0  0  0  0  0  0  0  0  0  0
   19.1199   22.0152   21.8325 H   0  0  0  0  0  0  0  0  0  0  0  0
   21.2687   22.2694   21.7562 C   0  0  0  0  0  0  0  0  0  0  0  0
   21.4165   21.9634   20.7124 H   0  0  0  0  0  0  0  0  0  0  0  0
   22.1679   22.0013   22.3243 H   0  0  0  0  0  0  0  0  0  0  0  0
   21.1818   23.3635   21.7754 H   0  0  0  0  0  0  0  0  0  0  0  0
   18.1246   16.8219   25.3112 C   0  0  0  0  0  0  0  0  0  0  0  0
   17.3219   17.2160   24.6841 H   0  0  0  0  0  0  0  0  0  0  0  0
   18.2115   15.7428   25.1665 H   0  0  0  0  0  0  0  0  0  0  0  0
   17.9125   17.0374   26.3608 H   0  0  0  0  0  0  0  0  0  0  0  0
  1  2  1  0  0  0  0
  1  3  1  0  0  0  0
  1  4  1  0  0  0  0
  4  5  1  0  0  0  0
  4  6  1  0  0  0  0
  4  7  1  0  0  0  0
  7  8  1  0  0  0  0
  7  9  1  0  0  0  0
  7 10  1  0  0  0  0
 10 11  1  0  0  0  0
 10 12  1  0  0  0  0
 10 13  1  0  0  0  0
 13 14  1  0  0  0  0
 13 15  1  0  0  0  0
 13 16  1  0  0  0  0
 16 17  1  0  0  0  0
 16 18  1  0  0  0  0
 16 19  1  0  0  0  0
 19 20  1  0  0  0  0
 19 21  1  0  0  0  0
 19 22  1  0  0  0  0
  1 23  1  0  0  0  0
 23 24  1  0  0  0  0
 23 25  1  0  0  0  0
 23 26  1  0  0  0  0
M  END
> <VConfSearch Rank>
134

> <Conf_Id>
134

> <Delta U+W>
1.464

> <U+W>
23.306

> <U>
72.579

> <W>
-49.273

> <W(PB)>
-51.540

> <W(SA)>
2.267

> <Valence>
2.677

> <Coulomb>
69.622

> <VdW>
0.280

> <VdW6>
-7.328

> <VdW12>
7.608

> <Bond>
0.212

> <Angle>
0.911

> <Pdih>
1.555

> <Idih>
0.000

> <Tether>
0.000

$$$$
VeraChem MOL file


 26 25  0  0  0  0  0  0  0  0999 V2000     
   21.4869   21.5231   23.3288 N   0  3  0  0  0  0  0  0  0  0  0  0
   21.2867   21.5433   22.3167 H   0  0  0  0  0  0  0  0  0  0  0  0
   22.4642   21.2018   23.4092 H   0  0  0  0  0  0  0  0  0  0  0  0
   20.5576   20.5503   24.0266 C   0  0  0  0  0  0  0  0  0  0  0  0
   19.5361   20.9213   23.9117 H   0  0  0  0  0  0  0  0  0  0  0  0
   20.8074   20.5528   25.0906 H   0  0  0  0  0  0  0  0  0  0  0  0
   20.6526   19.1159   23.4758 C   0  0  0  0  0  0  0  0  0  0  0  0
   20.4179   19.1285   22.4039 H   0  0  0  0  0  0  0  0  0  0  0  0
   21.6837   18.7526   23.5784 H   0  0  0  0  0  0  0  0  0  0  0  0
   19.6880   18.1623   24.2192 C   0  0  0  0  0  0  0  0  0  0  0  0
   18.6525   18.5023   24.0848 H   0  0  0  0  0  0  0  0  0  0  0  0
   19.8873   18.2235   25.2981 H   0  0  0  0  0  0  0  0  0  0  0  0
   19.8201   16.6803   23.7818 C   0  0  0  0  0  0  0  0  0  0  0  0
   20.8298   16.3237   24.0280 H   0  0  0  0  0  0  0  0  0  0  0  0
   19.1321   16.0723   24.3854 H   0  0  0  0  0  0  0  0  0  0  0  0
   19.5457   16.4052   22.2810 C   0  0  0  0  0  0  0  0  0  0  0  0
   19.6699   15.3292   22.0948 H   0  0  0  0  0  0  0  0  0  0  0  0
   20.2999   16.9054   21.6588 H   0  0  0  0  0  0  0  0  0  0  0  0
   18.1302   16.8281   21.8266 C   0  0  0  0  0  0  0  0  0  0  0  0
   17.3585   16.3546   22.4473 H   0  0  0  0  0  0  0  0  0  0  0  0
   17.9547   16.5277   20.7856 H   0  0  0  0  0  0  0  0  0  0  0  0
   17.9977   17.9157   21.8829 H   0  0  0  0  0  0  0  0  0  0  0  0
   21.3302   22.9123   23.9318 C   0  0  0  0  0  0  0  0  0  0  0  0
   21.5790   22.8726   24.9946 H   0  0  0  0  0  0  0  0  0  0  0  0
   22.0047   23.6028   23.4206 H   0  0  0  0  0  0  0  0  0  0  0  0
   20.2973   23.2442   23.8055 H   0  0  0  0  0  0  0  0  0  0  0  0
  1  2  1  0  0  0  0
  1  3  1  0  0  0  0
  1  4  1  0  0  0  0
  4  5  1  0  0  0  0
  4  6  1  0  0  0  0
  4  7  1  0  0  0  0
  7  8  1  0  0  0  0
  7  9  1  0  0  0  0
  7 10  1  0  0  0  0
 10 11  1  0  0  0  0
 10 12  1  0  0  0  0
 10 13  1  0  0  0  0
 13 14  1  0  0  0  0
 13 15  1  0  0  0  0
 13 16  1  0  0  0  0
 16 17  1  0  0  0  0
 16 18  1  0  0  0  0
 16 19  1  0  0  0  0
 19 20  1  0  0  0  0
 19 21  1  0  0  0  0
 19 22  1  0  0  0  0
  1 23  1  0  0  0  0
 23 24  1  0  0  0  0
 23 25  1  0  0  0  0
 23 26  1  0  0  0  0
M  END
> <VConfSearch Rank>
135

> <Conf_Id>
30

> <Delta U+W>
0.910

> <U+W>
22.752

> <U>
71.870

> <W>
-49.118

> <W(PB)>
-51.409

> <W(SA)>
2.290

> <Valence>
2.682

> <Coulomb>
68.933

> <VdW>
0.255

> <VdW6>
-6.833

> <VdW12>
7.088

> <Bond>
0.205

> <Angle>
1.003

> <Pdih>
1.473

> <Idih>
0.000

> <Tether>
0.000

$$$$
VeraChem MOL file


 26 25  0  0  0  0  0  0  0  0999 V2000     
   21.1668   17.4595   21.3631 N   0  3  0  0  0  0  0  0  0  0  0  0
   20.6870   16.5610   21.5281 H   0  0  0  0  0  0  0  0  0  0  0  0
   21.9896   17.4499   21.9857 H   0  0  0  0  0  0  0  0  0  0  0  0
   20.2528   18.6139   21.7217 C   0  0  0  0  0  0  0  0  0  0  0  0
   19.3934   18.5830   21.0472 H   0  0  0  0  0  0  0  0  0  0  0  0
   20.7992   19.5430   21.5409 H   0  0  0  0  0  0  0  0  0  0  0  0
   19.7668   18.5748   23.1819 C   0  0  0  0  0  0  0  0  0  0  0  0
   19.2321   17.6331   23.3639 H   0  0  0  0  0  0  0  0  0  0  0  0
   20.6380   18.5878   23.8489 H   0  0  0  0  0  0  0  0  0  0  0  0
   18.8380   19.7705   23.4984 C   0  0  0  0  0  0  0  0  0  0  0  0
   18.0147   19.7849   22.7706 H   0  0  0  0  0  0  0  0  0  0  0  0
   19.3833   20.7128   23.3545 H   0  0  0  0  0  0  0  0  0  0  0  0
   18.2286   19.7233   24.9237 C   0  0  0  0  0  0  0  0  0  0  0  0
   17.5550   20.5826   25.0473 H   0  0  0  0  0  0  0  0  0  0  0  0
   17.5945   18.8304   25.0118 H   0  0  0  0  0  0  0  0  0  0  0  0
   19.2564   19.7221   26.0843 C   0  0  0  0  0  0  0  0  0  0  0  0
   19.8628   18.8070   26.0540 H   0  0  0  0  0  0  0  0  0  0  0  0
   18.7083   19.6866   27.0362 H   0  0  0  0  0  0  0  0  0  0  0  0
   20.1807   20.9609   26.0889 C   0  0  0  0  0  0  0  0  0  0  0  0
   20.8361   20.9773   25.2092 H   0  0  0  0  0  0  0  0  0  0  0  0
   20.8230   20.9581   26.9790 H   0  0  0  0  0  0  0  0  0  0  0  0
   19.5958   21.8897   26.1000 H   0  0  0  0  0  0  0  0  0  0  0  0
   21.5997   17.5743   19.9080 C   0  0  0  0  0  0  0  0  0  0  0  0
   22.2572   16.7372   19.6627 H   0  0  0  0  0  0  0  0  0  0  0  0
   20.7156   17.5489   19.2672 H   0  0  0  0  0  0  0  0  0  0  0  0
   22.1333   18.5165   19.7653 H   0  0  0  0  0  0  0  0  0  0  0  0
  1  2  1  0  0  0  0
  1  3  1  0  0  0  0
  1  4  1  0  0  0  0
  4  5  1  0  0  0  0
  4  6  1  0  0  0  0
  4  7  1  0  0  0  0
  7  8  1  0  0  0  0
  7  9  1  0  0  0  0
  7 10  1  0  0  0  0
 10 11  1  0  0  0  0
 10 12  1  0  0  0  0
 10 13  1  0  0  0  0
 13 14  1  0  0  0  0
 13 15  1  0  0  0  0
 13 16  1  0  0  0  0
 16 17  1  0  0  0  0
 16 18  1  0  0  0  0
 16 19  1  0  0  0  0
 19 20  1  0  0  0  0
 19 21  1  0  0  0  0
 19 22  1  0  0  0  0
  1 23  1  0  0  0  0
 23 24  1  0  0  0  0
 23 25  1  0  0  0  0
 23 26  1  0  0  0  0
M  END
> <VConfSearch Rank>
136

> <Conf_Id>
29

> <Delta U+W>
0.886

> <U+W>
22.729

> <U>
71.870

> <W>
-49.141

> <W(PB)>
-51.404

> <W(SA)>
2.262

> <Valence>
2.682

> <Coulomb>
68.933

> <VdW>
0.255

> <VdW6>
-6.833

> <VdW12>
7.088

> <Bond>
0.205

> <Angle>
1.003

> <Pdih>
1.473

> <Idih>
0.000

> <Tether>
0.000

$$$$
VeraChem MOL file


 26 25  0  0  0  0  0  0  0  0999 V2000     
   18.8587   19.6059   20.9806 N   0  3  0  0  0  0  0  0  0  0  0  0
   17.8532   19.8360   21.0094 H   0  0  0  0  0  0  0  0  0  0  0  0
   18.9030   18.5880   20.8176 H   0  0  0  0  0  0  0  0  0  0  0  0
   19.5124   19.9533   22.3027 C   0  0  0  0  0  0  0  0  0  0  0  0
   19.4331   21.0343   22.4429 H   0  0  0  0  0  0  0  0  0  0  0  0
   20.5708   19.6917   22.2302 H   0  0  0  0  0  0  0  0  0  0  0  0
   18.8795   19.2271   23.5049 C   0  0  0  0  0  0  0  0  0  0  0  0
   17.8091   19.4683   23.5478 H   0  0  0  0  0  0  0  0  0  0  0  0
   18.9451   18.1415   23.3580 H   0  0  0  0  0  0  0  0  0  0  0  0
   19.5350   19.6197   24.8523 C   0  0  0  0  0  0  0  0  0  0  0  0
   19.0289   19.0850   25.6671 H   0  0  0  0  0  0  0  0  0  0  0  0
   19.3500   20.6865   25.0393 H   0  0  0  0  0  0  0  0  0  0  0  0
   21.0640   19.3612   24.9327 C   0  0  0  0  0  0  0  0  0  0  0  0
   21.5838   20.0244   24.2283 H   0  0  0  0  0  0  0  0  0  0  0  0
   21.4173   19.6565   25.9303 H   0  0  0  0  0  0  0  0  0  0  0  0
   21.5009   17.8992   24.6604 C   0  0  0  0  0  0  0  0  0  0  0  0
   22.5961   17.8419   24.7326 H   0  0  0  0  0  0  0  0  0  0  0  0
   21.2529   17.6142   23.6292 H   0  0  0  0  0  0  0  0  0  0  0  0
   20.8838   16.8811   25.6460 C   0  0  0  0  0  0  0  0  0  0  0  0
   21.2890   15.8770   25.4658 H   0  0  0  0  0  0  0  0  0  0  0  0
   19.7940   16.8225   25.5345 H   0  0  0  0  0  0  0  0  0  0  0  0
   21.1089   17.1523   26.6856 H   0  0  0  0  0  0  0  0  0  0  0  0
   19.5464   20.3581   19.8497 C   0  0  0  0  0  0  0  0  0  0  0  0
   19.0661   20.0995   18.9034 H   0  0  0  0  0  0  0  0  0  0  0  0
   19.4578   21.4322   20.0269 H   0  0  0  0  0  0  0  0  0  0  0  0
   20.6005   20.0739   19.8181 H   0  0  0  0  0  0  0  0  0  0  0  0
  1  2  1  0  0  0  0
  1  3  1  0  0  0  0
  1  4  1  0  0  0  0
  4  5  1  0  0  0  0
  4  6  1  0  0  0  0
  4  7  1  0  0  0  0
  7  8  1  0  0  0  0
  7  9  1  0  0  0  0
  7 10  1  0  0  0  0
 10 11  1  0  0  0  0
 10 12  1  0  0  0  0
 10 13  1  0  0  0  0
 13 14  1  0  0  0  0
 13 15  1  0  0  0  0
 13 16  1  0  0  0  0
 16 17  1  0  0  0  0
 16 18  1  0  0  0  0
 16 19  1  0  0  0  0
 19 20  1  0  0  0  0
 19 21  1  0  0  0  0
 19 22  1  0  0  0  0
  1 23  1  0  0  0  0
 23 24  1  0  0  0  0
 23 25  1  0  0  0  0
 23 26  1  0  0  0  0
M  END
> <VConfSearch Rank>
137

> <Conf_Id>
82

> <Delta U+W>
1.026

> <U+W>
22.868

> <U>
72.455

> <W>
-49.586

> <W(PB)>
-51.821

> <W(SA)>
2.234

> <Valence>
2.908

> <Coulomb>
69.435

> <VdW>
0.112

> <VdW6>
-7.765

> <VdW12>
7.877

> <Bond>
0.233

> <Angle>
1.170

> <Pdih>
1.506

> <Idih>
0.000

> <Tether>
0.000

$$$$
VeraChem MOL file


 26 25  0  0  0  0  0  0  0  0999 V2000     
   18.2545   20.8474   22.6477 N   0  3  0  0  0  0  0  0  0  0  0  0
   17.5806   20.1501   23.0000 H   0  0  0  0  0  0  0  0  0  0  0  0
   18.0529   20.9395   21.6399 H   0  0  0  0  0  0  0  0  0  0  0  0
   19.6728   20.3555   22.8542 C   0  0  0  0  0  0  0  0  0  0  0  0
   19.8422   20.2692   23.9302 H   0  0  0  0  0  0  0  0  0  0  0  0
   20.3525   21.1139   22.4577 H   0  0  0  0  0  0  0  0  0  0  0  0
   19.9534   19.0019   22.1744 C   0  0  0  0  0  0  0  0  0  0  0  0
   19.2613   18.2430   22.5609 H   0  0  0  0  0  0  0  0  0  0  0  0
   19.7460   19.0894   21.0996 H   0  0  0  0  0  0  0  0  0  0  0  0
   21.4164   18.5301   22.3646 C   0  0  0  0  0  0  0  0  0  0  0  0
   22.0867   19.2411   21.8620 H   0  0  0  0  0  0  0  0  0  0  0  0
   21.5560   17.5737   21.8432 H   0  0  0  0  0  0  0  0  0  0  0  0
   21.8674   18.3858   23.8434 C   0  0  0  0  0  0  0  0  0  0  0  0
   22.9071   18.0307   23.8596 H   0  0  0  0  0  0  0  0  0  0  0  0
   21.8876   19.3766   24.3171 H   0  0  0  0  0  0  0  0  0  0  0  0
   21.0009   17.4345   24.7074 C   0  0  0  0  0  0  0  0  0  0  0  0
   19.9784   17.8258   24.7947 H   0  0  0  0  0  0  0  0  0  0  0  0
   21.4060   17.4228   25.7289 H   0  0  0  0  0  0  0  0  0  0  0  0
   20.9611   15.9853   24.1718 C   0  0  0  0  0  0  0  0  0  0  0  0
   20.4637   15.9303   23.1955 H   0  0  0  0  0  0  0  0  0  0  0  0
   20.4077   15.3352   24.8616 H   0  0  0  0  0  0  0  0  0  0  0  0
   21.9742   15.5763   24.0650 H   0  0  0  0  0  0  0  0  0  0  0  0
   18.0612   22.1816   23.3550 C   0  0  0  0  0  0  0  0  0  0  0  0
   18.7617   22.9113   22.9429 H   0  0  0  0  0  0  0  0  0  0  0  0
   17.0362   22.5249   23.1982 H   0  0  0  0  0  0  0  0  0  0  0  0
   18.2475   22.0520   24.4234 H   0  0  0  0  0  0  0  0  0  0  0  0
  1  2  1  0  0  0  0
  1  3  1  0  0  0  0
  1  4  1  0  0  0  0
  4  5  1  0  0  0  0
  4  6  1  0  0  0  0
  4  7  1  0  0  0  0
  7  8  1  0  0  0  0
  7  9  1  0  0  0  0
  7 10  1  0  0  0  0
 10 11  1  0  0  0  0
 10 12  1  0  0  0  0
 10 13  1  0  0  0  0
 13 14  1  0  0  0  0
 13 15  1  0  0  0  0
 13 16  1  0  0  0  0
 16 17  1  0  0  0  0
 16 18  1  0  0  0  0
 16 19  1  0  0  0  0
 19 20  1  0  0  0  0
 19 21  1  0  0  0  0
 19 22  1  0  0  0  0
  1 23  1  0  0  0  0
 23 24  1  0  0  0  0
 23 25  1  0  0  0  0
 23 26  1  0  0  0  0
M  END
> <VConfSearch Rank>
138

> <Conf_Id>
71

> <Delta U+W>
1.096

> <U+W>
22.938

> <U>
72.455

> <W>
-49.517

> <W(PB)>
-51.795

> <W(SA)>
2.278

> <Valence>
2.908

> <Coulomb>
69.435

> <VdW>
0.112

> <VdW6>
-7.766

> <VdW12>
7.877

> <Bond>
0.233

> <Angle>
1.170

> <Pdih>
1.506

> <Idih>
0.000

> <Tether>
0.000

$$$$
VeraChem MOL file


 26 25  0  0  0  0  0  0  0  0999 V2000     
   17.5689   19.0182   23.3986 N   0  3  0  0  0  0  0  0  0  0  0  0
   18.1954   18.4524   23.9903 H   0  0  0  0  0  0  0  0  0  0  0  0
   16.8278   18.3686   23.0911 H   0  0  0  0  0  0  0  0  0  0  0  0
   18.3273   19.5375   22.1875 C   0  0  0  0  0  0  0  0  0  0  0  0
   17.6358   20.1453   21.5986 H   0  0  0  0  0  0  0  0  0  0  0  0
   18.6090   18.6721   21.5829 H   0  0  0  0  0  0  0  0  0  0  0  0
   19.5941   20.3623   22.5105 C   0  0  0  0  0  0  0  0  0  0  0  0
   20.0588   20.6748   21.5661 H   0  0  0  0  0  0  0  0  0  0  0  0
   19.3037   21.2881   23.0239 H   0  0  0  0  0  0  0  0  0  0  0  0
   20.6407   19.6086   23.3695 C   0  0  0  0  0  0  0  0  0  0  0  0
   20.2103   19.3608   24.3489 H   0  0  0  0  0  0  0  0  0  0  0  0
   21.4749   20.2940   23.5675 H   0  0  0  0  0  0  0  0  0  0  0  0
   21.1766   18.3228   22.6897 C   0  0  0  0  0  0  0  0  0  0  0  0
   20.3399   17.6490   22.4636 H   0  0  0  0  0  0  0  0  0  0  0  0
   21.6361   18.5785   21.7249 H   0  0  0  0  0  0  0  0  0  0  0  0
   22.1972   17.5468   23.5575 C   0  0  0  0  0  0  0  0  0  0  0  0
   22.4370   16.5991   23.0553 H   0  0  0  0  0  0  0  0  0  0  0  0
   21.7389   17.2768   24.5191 H   0  0  0  0  0  0  0  0  0  0  0  0
   23.5110   18.3223   23.8070 C   0  0  0  0  0  0  0  0  0  0  0  0
   23.3422   19.2176   24.4178 H   0  0  0  0  0  0  0  0  0  0  0  0
   23.9725   18.6327   22.8606 H   0  0  0  0  0  0  0  0  0  0  0  0
   24.2334   17.6915   24.3409 H   0  0  0  0  0  0  0  0  0  0  0  0
   16.9573   20.1627   24.1983 C   0  0  0  0  0  0  0  0  0  0  0  0
   16.3968   19.7508   25.0405 H   0  0  0  0  0  0  0  0  0  0  0  0
   17.7544   20.8102   24.5690 H   0  0  0  0  0  0  0  0  0  0  0  0
   16.2863   20.7330   23.5523 H   0  0  0  0  0  0  0  0  0  0  0  0
  1  2  1  0  0  0  0
  1  3  1  0  0  0  0
  1  4  1  0  0  0  0
  4  5  1  0  0  0  0
  4  6  1  0  0  0  0
  4  7  1  0  0  0  0
  7  8  1  0  0  0  0
  7  9  1  0  0  0  0
  7 10  1  0  0  0  0
 10 11  1  0  0  0  0
 10 12  1  0  0  0  0
 10 13  1  0  0  0  0
 13 14  1  0  0  0  0
 13 15  1  0  0  0  0
 13 16  1  0  0  0  0
 16 17  1  0  0  0  0
 16 18  1  0  0  0  0
 16 19  1  0  0  0  0
 19 20  1  0  0  0  0
 19 21  1  0  0  0  0
 19 22  1  0  0  0  0
  1 23  1  0  0  0  0
 23 24  1  0  0  0  0
 23 25  1  0  0  0  0
 23 26  1  0  0  0  0
M  END
> <VConfSearch Rank>
139

> <Conf_Id>
84

> <Delta U+W>
1.456

> <U+W>
23.298

> <U>
73.042

> <W>
-49.744

> <W(PB)>
-51.966

> <W(SA)>
2.222

> <Valence>
2.938

> <Coulomb>
69.625

> <VdW>
0.478

> <VdW6>
-8.182

> <VdW12>
8.660

> <Bond>
0.253

> <Angle>
1.038

> <Pdih>
1.647

> <Idih>
0.000

> <Tether>
0.000

$$$$
VeraChem MOL file


 26 25  0  0  0  0  0  0  0  0999 V2000     
   20.1140   20.8115   24.9289 N   0  3  0  0  0  0  0  0  0  0  0  0
   20.6835   20.7834   24.0698 H   0  0  0  0  0  0  0  0  0  0  0  0
   20.7883   20.7873   25.7095 H   0  0  0  0  0  0  0  0  0  0  0  0
   19.2051   19.5994   24.9873 C   0  0  0  0  0  0  0  0  0  0  0  0
   18.5055   19.6625   24.1505 H   0  0  0  0  0  0  0  0  0  0  0  0
   18.6305   19.6607   25.9150 H   0  0  0  0  0  0  0  0  0  0  0  0
   19.9566   18.2529   24.9383 C   0  0  0  0  0  0  0  0  0  0  0  0
   20.6175   18.1779   25.8120 H   0  0  0  0  0  0  0  0  0  0  0  0
   19.2259   17.4391   25.0374 H   0  0  0  0  0  0  0  0  0  0  0  0
   20.7867   18.0392   23.6474 C   0  0  0  0  0  0  0  0  0  0  0  0
   21.2898   17.0645   23.7137 H   0  0  0  0  0  0  0  0  0  0  0  0
   21.5859   18.7900   23.5877 H   0  0  0  0  0  0  0  0  0  0  0  0
   19.9313   18.0815   22.3581 C   0  0  0  0  0  0  0  0  0  0  0  0
   19.1188   17.3454   22.4326 H   0  0  0  0  0  0  0  0  0  0  0  0
   19.4584   19.0670   22.2520 H   0  0  0  0  0  0  0  0  0  0  0  0
   20.7764   17.7883   21.0985 C   0  0  0  0  0  0  0  0  0  0  0  0
   21.2467   16.7990   21.1886 H   0  0  0  0  0  0  0  0  0  0  0  0
   21.5922   18.5206   21.0198 H   0  0  0  0  0  0  0  0  0  0  0  0
   19.9226   17.8335   19.8133 C   0  0  0  0  0  0  0  0  0  0  0  0
   19.1175   17.0879   19.8476 H   0  0  0  0  0  0  0  0  0  0  0  0
   20.5396   17.6223   18.9303 H   0  0  0  0  0  0  0  0  0  0  0  0
   19.4666   18.8227   19.6765 H   0  0  0  0  0  0  0  0  0  0  0  0
   19.2830   22.0859   24.9779 C   0  0  0  0  0  0  0  0  0  0  0  0
   18.7127   22.1069   25.9092 H   0  0  0  0  0  0  0  0  0  0  0  0
   19.9496   22.9501   24.9341 H   0  0  0  0  0  0  0  0  0  0  0  0
   18.6005   22.1027   24.1254 H   0  0  0  0  0  0  0  0  0  0  0  0
  1  2  1  0  0  0  0
  1  3  1  0  0  0  0
  1  4  1  0  0  0  0
  4  5  1  0  0  0  0
  4  6  1  0  0  0  0
  4  7  1  0  0  0  0
  7  8  1  0  0  0  0
  7  9  1  0  0  0  0
  7 10  1  0  0  0  0
 10 11  1  0  0  0  0
 10 12  1  0  0  0  0
 10 13  1  0  0  0  0
 13 14  1  0  0  0  0
 13 15  1  0  0  0  0
 13 16  1  0  0  0  0
 16 17  1  0  0  0  0
 16 18  1  0  0  0  0
 16 19  1  0  0  0  0
 19 20  1  0  0  0  0
 19 21  1  0  0  0  0
 19 22  1  0  0  0  0
  1 23  1  0  0  0  0
 23 24  1  0  0  0  0
 23 25  1  0  0  0  0
 23 26  1  0  0  0  0
M  END
> <VConfSearch Rank>
140

> <Conf_Id>
73

> <Delta U+W>
0.884

> <U+W>
22.726

> <U>
71.905

> <W>
-49.179

> <W(PB)>
-51.494

> <W(SA)>
2.315

> <Valence>
2.125

> <Coulomb>
69.686

> <VdW>
0.093

> <VdW6>
-6.766

> <VdW12>
6.859

> <Bond>
0.169

> <Angle>
0.621

> <Pdih>
1.336

> <Idih>
0.000

> <Tether>
0.000

$$$$
VeraChem MOL file


 26 25  0  0  0  0  0  0  0  0999 V2000     
   18.9207   16.1422   22.5380 N   0  3  0  0  0  0  0  0  0  0  0  0
   18.0198   16.2490   23.0298 H   0  0  0  0  0  0  0  0  0  0  0  0
   19.5307   15.6266   23.1915 H   0  0  0  0  0  0  0  0  0  0  0  0
   19.5140   17.5028   22.2319 C   0  0  0  0  0  0  0  0  0  0  0  0
   18.8362   18.0175   21.5463 H   0  0  0  0  0  0  0  0  0  0  0  0
   20.4671   17.3456   21.7207 H   0  0  0  0  0  0  0  0  0  0  0  0
   19.7356   18.3665   23.4869 C   0  0  0  0  0  0  0  0  0  0  0  0
   18.7784   18.5080   24.0063 H   0  0  0  0  0  0  0  0  0  0  0  0
   20.4039   17.8384   24.1801 H   0  0  0  0  0  0  0  0  0  0  0  0
   20.3406   19.7416   23.1270 C   0  0  0  0  0  0  0  0  0  0  0  0
   19.6718   20.2645   22.4291 H   0  0  0  0  0  0  0  0  0  0  0  0
   21.2953   19.5956   22.6025 H   0  0  0  0  0  0  0  0  0  0  0  0
   20.5678   20.6180   24.3799 C   0  0  0  0  0  0  0  0  0  0  0  0
   19.6134   20.7642   24.9044 H   0  0  0  0  0  0  0  0  0  0  0  0
   21.2367   20.0953   25.0777 H   0  0  0  0  0  0  0  0  0  0  0  0
   21.1730   21.9932   24.0196 C   0  0  0  0  0  0  0  0  0  0  0  0
   20.5063   22.5212   23.3233 H   0  0  0  0  0  0  0  0  0  0  0  0
   22.1295   21.8524   23.4968 H   0  0  0  0  0  0  0  0  0  0  0  0
   21.3984   22.8655   25.2730 C   0  0  0  0  0  0  0  0  0  0  0  0
   21.8282   23.8371   24.9970 H   0  0  0  0  0  0  0  0  0  0  0  0
   22.0891   22.3787   25.9739 H   0  0  0  0  0  0  0  0  0  0  0  0
   20.4532   23.0527   25.7991 H   0  0  0  0  0  0  0  0  0  0  0  0
   18.7349   15.3558   21.2477 C   0  0  0  0  0  0  0  0  0  0  0  0
   19.7050   15.2270   20.7626 H   0  0  0  0  0  0  0  0  0  0  0  0
   18.3071   14.3785   21.4823 H   0  0  0  0  0  0  0  0  0  0  0  0
   18.0604   15.9045   20.5866 H   0  0  0  0  0  0  0  0  0  0  0  0
  1  2  1  0  0  0  0
  1  3  1  0  0  0  0
  1  4  1  0  0  0  0
  4  5  1  0  0  0  0
  4  6  1  0  0  0  0
  4  7  1  0  0  0  0
  7  8  1  0  0  0  0
  7  9  1  0  0  0  0
  7 10  1  0  0  0  0
 10 11  1  0  0  0  0
 10 12  1  0  0  0  0
 10 13  1  0  0  0  0
 13 14  1  0  0  0  0
 13 15  1  0  0  0  0
 13 16  1  0  0  0  0
 16 17  1  0  0  0  0
 16 18  1  0  0  0  0
 16 19  1  0  0  0  0
 19 20  1  0  0  0  0
 19 21  1  0  0  0  0
 19 22  1  0  0  0  0
  1 23  1  0  0  0  0
 23 24  1  0  0  0  0
 23 25  1  0  0  0  0
 23 26  1  0  0  0  0
M  END
> <VConfSearch Rank>
141

> <Conf_Id>
11

> <Delta U+W>
0.000

> <U+W>
21.842

> <U>
70.357

> <W>
-48.515

> <W(PB)>
-50.856

> <W(SA)>
2.341

> <Valence>
1.714

> <Coulomb>
68.480

> <VdW>
0.163

> <VdW6>
-5.268

> <VdW12>
5.431

> <Bond>
0.126

> <Angle>
0.350

> <Pdih>
1.238

> <Idih>
0.000

> <Tether>
0.000

$$$$
VeraChem MOL file


 26 25  0  0  0  0  0  0  0  0999 V2000     
   23.1002   20.3733   22.9866 N   0  3  0  0  0  0  0  0  0  0  0  0
   24.0668   20.1389   23.2636 H   0  0  0  0  0  0  0  0  0  0  0  0
   22.8691   21.2244   23.5220 H   0  0  0  0  0  0  0  0  0  0  0  0
   22.1697   19.2374   23.3781 C   0  0  0  0  0  0  0  0  0  0  0  0
   22.3838   18.9872   24.4204 H   0  0  0  0  0  0  0  0  0  0  0  0
   22.4204   18.3697   22.7629 H   0  0  0  0  0  0  0  0  0  0  0  0
   20.6685   19.5628   23.2394 C   0  0  0  0  0  0  0  0  0  0  0  0
   20.4362   20.4647   23.8211 H   0  0  0  0  0  0  0  0  0  0  0  0
   20.4323   19.7859   22.1910 H   0  0  0  0  0  0  0  0  0  0  0  0
   19.7902   18.3891   23.7268 C   0  0  0  0  0  0  0  0  0  0  0  0
   20.0282   18.1646   24.7759 H   0  0  0  0  0  0  0  0  0  0  0  0
   20.0303   17.4871   23.1467 H   0  0  0  0  0  0  0  0  0  0  0  0
   18.2824   18.7028   23.5944 C   0  0  0  0  0  0  0  0  0  0  0  0
   18.0423   19.6049   24.1742 H   0  0  0  0  0  0  0  0  0  0  0  0
   18.0442   18.9271   22.5454 H   0  0  0  0  0  0  0  0  0  0  0  0
   17.4042   17.5288   24.0819 C   0  0  0  0  0  0  0  0  0  0  0  0
   17.6370   17.3021   25.1319 H   0  0  0  0  0  0  0  0  0  0  0  0
   17.6390   16.6243   23.5032 H   0  0  0  0  0  0  0  0  0  0  0  0
   15.8994   17.8456   23.9482 C   0  0  0  0  0  0  0  0  0  0  0  0
   15.2926   17.0007   24.2990 H   0  0  0  0  0  0  0  0  0  0  0  0
   15.6287   18.0433   22.9028 H   0  0  0  0  0  0  0  0  0  0  0  0
   15.6267   18.7263   24.5442 H   0  0  0  0  0  0  0  0  0  0  0  0
   23.0426   20.6432   21.4872 C   0  0  0  0  0  0  0  0  0  0  0  0
   22.0322   20.9535   21.2139 H   0  0  0  0  0  0  0  0  0  0  0  0
   23.7499   21.4380   21.2401 H   0  0  0  0  0  0  0  0  0  0  0  0
   23.3094   19.7316   20.9481 H   0  0  0  0  0  0  0  0  0  0  0  0
  1  2  1  0  0  0  0
  1  3  1  0  0  0  0
  1  4  1  0  0  0  0
  4  5  1  0  0  0  0
  4  6  1  0  0  0  0
  4  7  1  0  0  0  0
  7  8  1  0  0  0  0
  7  9  1  0  0  0  0
  7 10  1  0  0  0  0
 10 11  1  0  0  0  0
 10 12  1  0  0  0  0
 10 13  1  0  0  0  0
 13 14  1  0  0  0  0
 13 15  1  0  0  0  0
 13 16  1  0  0  0  0
 16 17  1  0  0  0  0
 16 18  1  0  0  0  0
 16 19  1  0  0  0  0
 19 20  1  0  0  0  0
 19 21  1  0  0  0  0
 19 22  1  0  0  0  0
  1 23  1  0  0  0  0
 23 24  1  0  0  0  0
 23 25  1  0  0  0  0
 23 26  1  0  0  0  0
M  END
> <VConfSearch Rank>
142

> <Conf_Id>
102

> <Delta U+W>
0.121

> <U+W>
21.963

> <U>
70.745

> <W>
-48.782

> <W(PB)>
-51.111

> <W(SA)>
2.329

> <Valence>
1.993

> <Coulomb>
68.323

> <VdW>
0.429

> <VdW6>
-5.973

> <VdW12>
6.402

> <Bond>
0.161

> <Angle>
0.472

> <Pdih>
1.360

> <Idih>
0.000

> <Tether>
0.000

$$$$
VeraChem MOL file


 26 25  0  0  0  0  0  0  0  0999 V2000     
   22.8699   21.0075   23.3455 N   0  3  0  0  0  0  0  0  0  0  0  0
   22.8978   21.0619   24.3754 H   0  0  0  0  0  0  0  0  0  0  0  0
   23.1636   21.9428   23.0216 H   0  0  0  0  0  0  0  0  0  0  0  0
   21.4532   20.7275   22.8723 C   0  0  0  0  0  0  0  0  0  0  0  0
   21.4735   20.6385   21.7832 H   0  0  0  0  0  0  0  0  0  0  0  0
   20.8468   21.5996   23.1299 H   0  0  0  0  0  0  0  0  0  0  0  0
   20.8089   19.4695   23.4895 C   0  0  0  0  0  0  0  0  0  0  0  0
   21.3905   18.5807   23.2127 H   0  0  0  0  0  0  0  0  0  0  0  0
   20.8379   19.5455   24.5845 H   0  0  0  0  0  0  0  0  0  0  0  0
   19.3479   19.2960   23.0187 C   0  0  0  0  0  0  0  0  0  0  0  0
   19.3226   19.2269   21.9222 H   0  0  0  0  0  0  0  0  0  0  0  0
   18.7661   20.1867   23.2942 H   0  0  0  0  0  0  0  0  0  0  0  0
   18.6895   18.0388   23.6313 C   0  0  0  0  0  0  0  0  0  0  0  0
   19.2709   17.1480   23.3556 H   0  0  0  0  0  0  0  0  0  0  0  0
   18.7150   18.1076   24.7277 H   0  0  0  0  0  0  0  0  0  0  0  0
   17.2282   17.8656   23.1603 C   0  0  0  0  0  0  0  0  0  0  0  0
   17.1975   17.7939   22.0640 H   0  0  0  0  0  0  0  0  0  0  0  0
   16.6416   18.7532   23.4361 H   0  0  0  0  0  0  0  0  0  0  0  0
   16.5743   16.6091   23.7738 C   0  0  0  0  0  0  0  0  0  0  0  0
   17.1192   15.7002   23.4871 H   0  0  0  0  0  0  0  0  0  0  0  0
   15.5378   16.5033   23.4280 H   0  0  0  0  0  0  0  0  0  0  0  0
   16.5591   16.6670   24.8700 H   0  0  0  0  0  0  0  0  0  0  0  0
   23.8432   19.9527   22.8312 C   0  0  0  0  0  0  0  0  0  0  0  0
   23.8053   19.9312   21.7399 H   0  0  0  0  0  0  0  0  0  0  0  0
   24.8530   20.2081   23.1600 H   0  0  0  0  0  0  0  0  0  0  0  0
   23.5632   18.9762   23.2314 H   0  0  0  0  0  0  0  0  0  0  0  0
  1  2  1  0  0  0  0
  1  3  1  0  0  0  0
  1  4  1  0  0  0  0
  4  5  1  0  0  0  0
  4  6  1  0  0  0  0
  4  7  1  0  0  0  0
  7  8  1  0  0  0  0
  7  9  1  0  0  0  0
  7 10  1  0  0  0  0
 10 11  1  0  0  0  0
 10 12  1  0  0  0  0
 10 13  1  0  0  0  0
 13 14  1  0  0  0  0
 13 15  1  0  0  0  0
 13 16  1  0  0  0  0
 16 17  1  0  0  0  0
 16 18  1  0  0  0  0
 16 19  1  0  0  0  0
 19 20  1  0  0  0  0
 19 21  1  0  0  0  0
 19 22  1  0  0  0  0
  1 23  1  0  0  0  0
 23 24  1  0  0  0  0
 23 25  1  0  0  0  0
 23 26  1  0  0  0  0
M  END
> <VConfSearch Rank>
143

> <Conf_Id>
37

> <Delta U+W>
0.125

> <U+W>
21.967

> <U>
70.745

> <W>
-48.778

> <W(PB)>
-51.115

> <W(SA)>
2.337

> <Valence>
1.993

> <Coulomb>
68.323

> <VdW>
0.429

> <VdW6>
-5.973

> <VdW12>
6.403

> <Bond>
0.161

> <Angle>
0.472

> <Pdih>
1.360

> <Idih>
0.000

> <Tether>
0.000

$$$$
VeraChem MOL file


 26 25  0  0  0  0  0  0  0  0999 V2000     
   17.0832   19.4591   22.6583 N   0  3  0  0  0  0  0  0  0  0  0  0
   16.8645   19.0998   21.7160 H   0  0  0  0  0  0  0  0  0  0  0  0
   17.1049   20.4862   22.5622 H   0  0  0  0  0  0  0  0  0  0  0  0
   18.4357   18.9477   23.1121 C   0  0  0  0  0  0  0  0  0  0  0  0
   18.3734   17.8594   23.1908 H   0  0  0  0  0  0  0  0  0  0  0  0
   18.6280   19.3551   24.1073 H   0  0  0  0  0  0  0  0  0  0  0  0
   19.5833   19.3334   22.1588 C   0  0  0  0  0  0  0  0  0  0  0  0
   19.3536   18.9581   21.1526 H   0  0  0  0  0  0  0  0  0  0  0  0
   19.6466   20.4268   22.0795 H   0  0  0  0  0  0  0  0  0  0  0  0
   20.9510   18.7643   22.6053 C   0  0  0  0  0  0  0  0  0  0  0  0
   21.6872   18.9859   21.8218 H   0  0  0  0  0  0  0  0  0  0  0  0
   20.8878   17.6694   22.6727 H   0  0  0  0  0  0  0  0  0  0  0  0
   21.4394   19.3448   23.9571 C   0  0  0  0  0  0  0  0  0  0  0  0
   21.5220   20.4380   23.8828 H   0  0  0  0  0  0  0  0  0  0  0  0
   20.6913   19.1440   24.7352 H   0  0  0  0  0  0  0  0  0  0  0  0
   22.7919   18.7564   24.4276 C   0  0  0  0  0  0  0  0  0  0  0  0
   22.7120   17.6638   24.5148 H   0  0  0  0  0  0  0  0  0  0  0  0
   23.0051   19.1298   25.4391 H   0  0  0  0  0  0  0  0  0  0  0  0
   23.9777   19.1195   23.5046 C   0  0  0  0  0  0  0  0  0  0  0  0
   23.8736   18.6612   22.5135 H   0  0  0  0  0  0  0  0  0  0  0  0
   24.9222   18.7619   23.9346 H   0  0  0  0  0  0  0  0  0  0  0  0
   24.0590   20.2065   23.3748 H   0  0  0  0  0  0  0  0  0  0  0  0
   16.0100   19.0382   23.6528 C   0  0  0  0  0  0  0  0  0  0  0  0
   16.2450   19.4573   24.6336 H   0  0  0  0  0  0  0  0  0  0  0  0
   15.0414   19.4126   23.3142 H   0  0  0  0  0  0  0  0  0  0  0  0
   15.9836   17.9479   23.7127 H   0  0  0  0  0  0  0  0  0  0  0  0
  1  2  1  0  0  0  0
  1  3  1  0  0  0  0
  1  4  1  0  0  0  0
  4  5  1  0  0  0  0
  4  6  1  0  0  0  0
  4  7  1  0  0  0  0
  7  8  1  0  0  0  0
  7  9  1  0  0  0  0
  7 10  1  0  0  0  0
 10 11  1  0  0  0  0
 10 12  1  0  0  0  0
 10 13  1  0  0  0  0
 13 14  1  0  0  0  0
 13 15  1  0  0  0  0
 13 16  1  0  0  0  0
 16 17  1  0  0  0  0
 16 18  1  0  0  0  0
 16 19  1  0  0  0  0
 19 20  1  0  0  0  0
 19 21  1  0  0  0  0
 19 22  1  0  0  0  0
  1 23  1  0  0  0  0
 23 24  1  0  0  0  0
 23 25  1  0  0  0  0
 23 26  1  0  0  0  0
M  END
> <VConfSearch Rank>
144

> <Conf_Id>
137

> <Delta U+W>
1.038

> <U+W>
22.880

> <U>
71.810

> <W>
-48.930

> <W(PB)>
-51.257

> <W(SA)>
2.327

> <Valence>
2.568

> <Coulomb>
68.877

> <VdW>
0.364

> <VdW6>
-6.470

> <VdW12>
6.834

> <Bond>
0.191

> <Angle>
0.752

> <Pdih>
1.626

> <Idih>
0.000

> <Tether>
0.000

$$$$
VeraChem MOL file


 26 25  0  0  0  0  0  0  0  0999 V2000     
   22.3841   18.8490   25.1613 N   0  3  0  0  0  0  0  0  0  0  0  0
   22.9747   18.6921   24.3298 H   0  0  0  0  0  0  0  0  0  0  0  0
   22.1379   17.9076   25.5049 H   0  0  0  0  0  0  0  0  0  0  0  0
   21.1308   19.6096   24.7770 C   0  0  0  0  0  0  0  0  0  0  0  0
   21.4346   20.5940   24.4122 H   0  0  0  0  0  0  0  0  0  0  0  0
   20.5319   19.7471   25.6808 H   0  0  0  0  0  0  0  0  0  0  0  0
   20.2906   18.8959   23.7024 C   0  0  0  0  0  0  0  0  0  0  0  0
   20.9078   18.7467   22.8077 H   0  0  0  0  0  0  0  0  0  0  0  0
   20.0014   17.9012   24.0670 H   0  0  0  0  0  0  0  0  0  0  0  0
   19.0235   19.7091   23.3469 C   0  0  0  0  0  0  0  0  0  0  0  0
   19.3134   20.6862   22.9360 H   0  0  0  0  0  0  0  0  0  0  0  0
   18.4631   19.9172   24.2691 H   0  0  0  0  0  0  0  0  0  0  0  0
   18.0812   18.9867   22.3525 C   0  0  0  0  0  0  0  0  0  0  0  0
   17.7770   18.0173   22.7709 H   0  0  0  0  0  0  0  0  0  0  0  0
   17.1618   19.5799   22.2511 H   0  0  0  0  0  0  0  0  0  0  0  0
   18.7014   18.7782   20.9503 C   0  0  0  0  0  0  0  0  0  0  0  0
   19.5788   18.1214   21.0171 H   0  0  0  0  0  0  0  0  0  0  0  0
   19.0531   19.7406   20.5530 H   0  0  0  0  0  0  0  0  0  0  0  0
   17.6869   18.1587   19.9654 C   0  0  0  0  0  0  0  0  0  0  0  0
   17.3388   17.1801   20.3210 H   0  0  0  0  0  0  0  0  0  0  0  0
   18.1437   18.0150   18.9776 H   0  0  0  0  0  0  0  0  0  0  0  0
   16.8108   18.8081   19.8395 H   0  0  0  0  0  0  0  0  0  0  0  0
   23.1531   19.6211   26.2244 C   0  0  0  0  0  0  0  0  0  0  0  0
   22.5204   19.7458   27.1060 H   0  0  0  0  0  0  0  0  0  0  0  0
   24.0528   19.0627   26.4922 H   0  0  0  0  0  0  0  0  0  0  0  0
   23.4310   20.5998   25.8269 H   0  0  0  0  0  0  0  0  0  0  0  0
  1  2  1  0  0  0  0
  1  3  1  0  0  0  0
  1  4  1  0  0  0  0
  4  5  1  0  0  0  0
  4  6  1  0  0  0  0
  4  7  1  0  0  0  0
  7  8  1  0  0  0  0
  7  9  1  0  0  0  0
  7 10  1  0  0  0  0
 10 11  1  0  0  0  0
 10 12  1  0  0  0  0
 10 13  1  0  0  0  0
 13 14  1  0  0  0  0
 13 15  1  0  0  0  0
 13 16  1  0  0  0  0
 16 17  1  0  0  0  0
 16 18  1  0  0  0  0
 16 19  1  0  0  0  0
 19 20  1  0  0  0  0
 19 21  1  0  0  0  0
 19 22  1  0  0  0  0
  1 23  1  0  0  0  0
 23 24  1  0  0  0  0
 23 25  1  0  0  0  0
 23 26  1  0  0  0  0
M  END
> <VConfSearch Rank>
145

> <Conf_Id>
35

> <Delta U+W>
0.670

> <U+W>
22.512

> <U>
71.348

> <W>
-48.837

> <W(PB)>
-51.150

> <W(SA)>
2.313

> <Valence>
2.262

> <Coulomb>
68.807

> <VdW>
0.280

> <VdW6>
-5.915

> <VdW12>
6.195

> <Bond>
0.164

> <Angle>
0.622

> <Pdih>
1.475

> <Idih>
0.000

> <Tether>
0.000

$$$$
VeraChem MOL file


 26 25  0  0  0  0  0  0  0  0999 V2000     
   21.6370   17.3287   25.0940 N   0  3  0  0  0  0  0  0  0  0  0  0
   20.8350   17.0103   25.6599 H   0  0  0  0  0  0  0  0  0  0  0  0
   21.9647   18.1966   25.5460 H   0  0  0  0  0  0  0  0  0  0  0  0
   21.1939   17.6139   23.6730 C   0  0  0  0  0  0  0  0  0  0  0  0
   20.8482   16.6742   23.2348 H   0  0  0  0  0  0  0  0  0  0  0  0
   22.0674   17.9549   23.1114 H   0  0  0  0  0  0  0  0  0  0  0  0
   20.0765   18.6691   23.5836 C   0  0  0  0  0  0  0  0  0  0  0  0
   19.2073   18.3297   24.1625 H   0  0  0  0  0  0  0  0  0  0  0  0
   20.4285   19.6013   24.0431 H   0  0  0  0  0  0  0  0  0  0  0  0
   19.6582   18.9227   22.1160 C   0  0  0  0  0  0  0  0  0  0  0  0
   19.3882   17.9640   21.6515 H   0  0  0  0  0  0  0  0  0  0  0  0
   20.5156   19.3092   21.5476 H   0  0  0  0  0  0  0  0  0  0  0  0
   18.4596   19.8928   21.9711 C   0  0  0  0  0  0  0  0  0  0  0  0
   18.1603   19.9205   20.9142 H   0  0  0  0  0  0  0  0  0  0  0  0
   17.5966   19.4976   22.5247 H   0  0  0  0  0  0  0  0  0  0  0  0
   18.7672   21.3337   22.4439 C   0  0  0  0  0  0  0  0  0  0  0  0
   19.6615   21.7107   21.9282 H   0  0  0  0  0  0  0  0  0  0  0  0
   18.9925   21.3408   23.5185 H   0  0  0  0  0  0  0  0  0  0  0  0
   17.5826   22.2862   22.1751 C   0  0  0  0  0  0  0  0  0  0  0  0
   17.3526   22.3385   21.1029 H   0  0  0  0  0  0  0  0  0  0  0  0
   17.8163   23.3022   22.5187 H   0  0  0  0  0  0  0  0  0  0  0  0
   16.6797   21.9518   22.7024 H   0  0  0  0  0  0  0  0  0  0  0  0
   22.7394   16.2787   25.0920 C   0  0  0  0  0  0  0  0  0  0  0  0
   23.5892   16.6512   24.5157 H   0  0  0  0  0  0  0  0  0  0  0  0
   23.0492   16.0826   26.1210 H   0  0  0  0  0  0  0  0  0  0  0  0
   22.3596   15.3600   24.6397 H   0  0  0  0  0  0  0  0  0  0  0  0
  1  2  1  0  0  0  0
  1  3  1  0  0  0  0
  1  4  1  0  0  0  0
  4  5  1  0  0  0  0
  4  6  1  0  0  0  0
  4  7  1  0  0  0  0
  7  8  1  0  0  0  0
  7  9  1  0  0  0  0
  7 10  1  0  0  0  0
 10 11  1  0  0  0  0
 10 12  1  0  0  0  0
 10 13  1  0  0  0  0
 13 14  1  0  0  0  0
 13 15  1  0  0  0  0
 13 16  1  0  0  0  0
 16 17  1  0  0  0  0
 16 18  1  0  0  0  0
 16 19  1  0  0  0  0
 19 20  1  0  0  0  0
 19 21  1  0  0  0  0
 19 22  1  0  0  0  0
  1 23  1  0  0  0  0
 23 24  1  0  0  0  0
 23 25  1  0  0  0  0
 23 26  1  0  0  0  0
M  END
> <VConfSearch Rank>
146

> <Conf_Id>
36

> <Delta U+W>
0.662

> <U+W>
22.504

> <U>
71.348

> <W>
-48.844

> <W(PB)>
-51.157

> <W(SA)>
2.313

> <Valence>
2.262

> <Coulomb>
68.807

> <VdW>
0.280

> <VdW6>
-5.916

> <VdW12>
6.195

> <Bond>
0.164

> <Angle>
0.622

> <Pdih>
1.475

> <Idih>
0.000

> <Tether>
0.000

$$$$
VeraChem MOL file


 26 25  0  0  0  0  0  0  0  0999 V2000     
   20.0416   22.1187   23.4164 N   0  3  0  0  0  0  0  0  0  0  0  0
   20.0791   22.2837   22.3984 H   0  0  0  0  0  0  0  0  0  0  0  0
   20.8710   22.5960   23.8024 H   0  0  0  0  0  0  0  0  0  0  0  0
   20.1100   20.6332   23.7083 C   0  0  0  0  0  0  0  0  0  0  0  0
   19.2192   20.1686   23.2792 H   0  0  0  0  0  0  0  0  0  0  0  0
   20.0787   20.5028   24.7929 H   0  0  0  0  0  0  0  0  0  0  0  0
   21.3744   19.9590   23.1417 C   0  0  0  0  0  0  0  0  0  0  0  0
   21.4068   20.0916   22.0520 H   0  0  0  0  0  0  0  0  0  0  0  0
   22.2620   20.4634   23.5463 H   0  0  0  0  0  0  0  0  0  0  0  0
   21.4531   18.4526   23.4847 C   0  0  0  0  0  0  0  0  0  0  0  0
   21.4483   18.3247   24.5761 H   0  0  0  0  0  0  0  0  0  0  0  0
   22.4168   18.0607   23.1307 H   0  0  0  0  0  0  0  0  0  0  0  0
   20.3057   17.6250   22.8567 C   0  0  0  0  0  0  0  0  0  0  0  0
   19.3375   17.9738   23.2400 H   0  0  0  0  0  0  0  0  0  0  0  0
   20.2925   17.7815   21.7691 H   0  0  0  0  0  0  0  0  0  0  0  0
   20.4549   16.1167   23.1567 C   0  0  0  0  0  0  0  0  0  0  0  0
   20.4695   15.9543   24.2437 H   0  0  0  0  0  0  0  0  0  0  0  0
   21.4175   15.7543   22.7695 H   0  0  0  0  0  0  0  0  0  0  0  0
   19.3092   15.2926   22.5314 C   0  0  0  0  0  0  0  0  0  0  0  0
   18.3345   15.6083   22.9258 H   0  0  0  0  0  0  0  0  0  0  0  0
   19.4329   14.2250   22.7548 H   0  0  0  0  0  0  0  0  0  0  0  0
   19.2898   15.4080   21.4398 H   0  0  0  0  0  0  0  0  0  0  0  0
   18.7658   22.7041   24.0058 C   0  0  0  0  0  0  0  0  0  0  0  0
   18.7644   22.5468   25.0866 H   0  0  0  0  0  0  0  0  0  0  0  0
   18.7291   23.7740   23.7887 H   0  0  0  0  0  0  0  0  0  0  0  0
   17.9023   22.2071   23.5582 H   0  0  0  0  0  0  0  0  0  0  0  0
  1  2  1  0  0  0  0
  1  3  1  0  0  0  0
  1  4  1  0  0  0  0
  4  5  1  0  0  0  0
  4  6  1  0  0  0  0
  4  7  1  0  0  0  0
  7  8  1  0  0  0  0
  7  9  1  0  0  0  0
  7 10  1  0  0  0  0
 10 11  1  0  0  0  0
 10 12  1  0  0  0  0
 10 13  1  0  0  0  0
 13 14  1  0  0  0  0
 13 15  1  0  0  0  0
 13 16  1  0  0  0  0
 16 17  1  0  0  0  0
 16 18  1  0  0  0  0
 16 19  1  0  0  0  0
 19 20  1  0  0  0  0
 19 21  1  0  0  0  0
 19 22  1  0  0  0  0
  1 23  1  0  0  0  0
 23 24  1  0  0  0  0
 23 25  1  0  0  0  0
 23 26  1  0  0  0  0
M  END
> <VConfSearch Rank>
147

> <Conf_Id>
46

> <Delta U+W>
0.496

> <U+W>
22.338

> <U>
71.138

> <W>
-48.799

> <W(PB)>
-51.136

> <W(SA)>
2.337

> <Valence>
2.016

> <Coulomb>
68.932

> <VdW>
0.190

> <VdW6>
-5.902

> <VdW12>
6.092

> <Bond>
0.149

> <Angle>
0.477

> <Pdih>
1.390

> <Idih>
0.000

> <Tether>
0.000

$$$$
VeraChem MOL file


 26 25  0  0  0  0  0  0  0  0999 V2000     
   19.4677   17.3894   25.7341 N   0  3  0  0  0  0  0  0  0  0  0  0
   18.8289   17.7749   26.4469 H   0  0  0  0  0  0  0  0  0  0  0  0
   20.4140   17.4809   26.1354 H   0  0  0  0  0  0  0  0  0  0  0  0
   19.3640   18.1895   24.4513 C   0  0  0  0  0  0  0  0  0  0  0  0
   18.3477   18.0752   24.0660 H   0  0  0  0  0  0  0  0  0  0  0  0
   20.0578   17.7521   23.7295 H   0  0  0  0  0  0  0  0  0  0  0  0
   19.6815   19.6855   24.6395 C   0  0  0  0  0  0  0  0  0  0  0  0
   19.0069   20.1028   25.3989 H   0  0  0  0  0  0  0  0  0  0  0  0
   20.7021   19.8003   25.0283 H   0  0  0  0  0  0  0  0  0  0  0  0
   19.5290   20.4979   23.3318 C   0  0  0  0  0  0  0  0  0  0  0  0
   19.6803   21.5623   23.5589 H   0  0  0  0  0  0  0  0  0  0  0  0
   18.4993   20.4033   22.9598 H   0  0  0  0  0  0  0  0  0  0  0  0
   20.5248   20.0665   22.2281 C   0  0  0  0  0  0  0  0  0  0  0  0
   21.5515   20.1304   22.6143 H   0  0  0  0  0  0  0  0  0  0  0  0
   20.3521   19.0167   21.9557 H   0  0  0  0  0  0  0  0  0  0  0  0
   20.3961   20.9449   20.9636 C   0  0  0  0  0  0  0  0  0  0  0  0
   20.5757   21.9978   21.2227 H   0  0  0  0  0  0  0  0  0  0  0  0
   19.3704   20.8854   20.5733 H   0  0  0  0  0  0  0  0  0  0  0  0
   21.3885   20.5128   19.8630 C   0  0  0  0  0  0  0  0  0  0  0  0
   22.4260   20.5938   20.2126 H   0  0  0  0  0  0  0  0  0  0  0  0
   21.2823   21.1481   18.9741 H   0  0  0  0  0  0  0  0  0  0  0  0
   21.2111   19.4735   19.5570 H   0  0  0  0  0  0  0  0  0  0  0  0
   19.1428   15.9274   25.4603 C   0  0  0  0  0  0  0  0  0  0  0  0
   19.2209   15.3626   26.3920 H   0  0  0  0  0  0  0  0  0  0  0  0
   18.1262   15.8529   25.0680 H   0  0  0  0  0  0  0  0  0  0  0  0
   19.8516   15.5327   24.7292 H   0  0  0  0  0  0  0  0  0  0  0  0
  1  2  1  0  0  0  0
  1  3  1  0  0  0  0
  1  4  1  0  0  0  0
  4  5  1  0  0  0  0
  4  6  1  0  0  0  0
  4  7  1  0  0  0  0
  7  8  1  0  0  0  0
  7  9  1  0  0  0  0
  7 10  1  0  0  0  0
 10 11  1  0  0  0  0
 10 12  1  0  0  0  0
 10 13  1  0  0  0  0
 13 14  1  0  0  0  0
 13 15  1  0  0  0  0
 13 16  1  0  0  0  0
 16 17  1  0  0  0  0
 16 18  1  0  0  0  0
 16 19  1  0  0  0  0
 19 20  1  0  0  0  0
 19 21  1  0  0  0  0
 19 22  1  0  0  0  0
  1 23  1  0  0  0  0
 23 24  1  0  0  0  0
 23 25  1  0  0  0  0
 23 26  1  0  0  0  0
M  END
> <VConfSearch Rank>
148

> <Conf_Id>
45

> <Delta U+W>
0.471

> <U+W>
22.313

> <U>
71.138

> <W>
-48.825

> <W(PB)>
-51.169

> <W(SA)>
2.344

> <Valence>
2.016

> <Coulomb>
68.932

> <VdW>
0.190

> <VdW6>
-5.902

> <VdW12>
6.092

> <Bond>
0.149

> <Angle>
0.477

> <Pdih>
1.390

> <Idih>
0.000

> <Tether>
0.000

$$$$
VeraChem MOL file


 26 25  0  0  0  0  0  0  0  0999 V2000     
   21.6825   17.9098   21.6189 N   0  3  0  0  0  0  0  0  0  0  0  0
   22.2495   18.3063   22.3834 H   0  0  0  0  0  0  0  0  0  0  0  0
   21.4896   18.6970   20.9804 H   0  0  0  0  0  0  0  0  0  0  0  0
   20.3832   17.3537   22.1690 C   0  0  0  0  0  0  0  0  0  0  0  0
   20.6281   16.5311   22.8455 H   0  0  0  0  0  0  0  0  0  0  0  0
   19.8162   16.9466   21.3279 H   0  0  0  0  0  0  0  0  0  0  0  0
   19.5221   18.3956   22.9097 C   0  0  0  0  0  0  0  0  0  0  0  0
   19.2805   19.2156   22.2218 H   0  0  0  0  0  0  0  0  0  0  0  0
   18.5692   17.9249   23.1857 H   0  0  0  0  0  0  0  0  0  0  0  0
   20.2136   18.9413   24.1843 C   0  0  0  0  0  0  0  0  0  0  0  0
   21.1235   19.4935   23.9135 H   0  0  0  0  0  0  0  0  0  0  0  0
   20.5385   18.0941   24.8042 H   0  0  0  0  0  0  0  0  0  0  0  0
   19.2994   19.8527   25.0397 C   0  0  0  0  0  0  0  0  0  0  0  0
   18.3978   19.2982   25.3346 H   0  0  0  0  0  0  0  0  0  0  0  0
   19.8271   20.0992   25.9716 H   0  0  0  0  0  0  0  0  0  0  0  0
   18.8950   21.1660   24.3286 C   0  0  0  0  0  0  0  0  0  0  0  0
   18.2997   20.9447   23.4328 H   0  0  0  0  0  0  0  0  0  0  0  0
   19.7953   21.6973   23.9896 H   0  0  0  0  0  0  0  0  0  0  0  0
   18.0768   22.0880   25.2578 C   0  0  0  0  0  0  0  0  0  0  0  0
   17.1539   21.5951   25.5899 H   0  0  0  0  0  0  0  0  0  0  0  0
   17.7961   23.0127   24.7371 H   0  0  0  0  0  0  0  0  0  0  0  0
   18.6554   22.3660   26.1483 H   0  0  0  0  0  0  0  0  0  0  0  0
   22.4520   16.8121   20.8975 C   0  0  0  0  0  0  0  0  0  0  0  0
   21.8449   16.4299   20.0739 H   0  0  0  0  0  0  0  0  0  0  0  0
   23.3847   17.2256   20.5073 H   0  0  0  0  0  0  0  0  0  0  0  0
   22.6716   16.0058   21.6008 H   0  0  0  0  0  0  0  0  0  0  0  0
  1  2  1  0  0  0  0
  1  3  1  0  0  0  0
  1  4  1  0  0  0  0
  4  5  1  0  0  0  0
  4  6  1  0  0  0  0
  4  7  1  0  0  0  0
  7  8  1  0  0  0  0
  7  9  1  0  0  0  0
  7 10  1  0  0  0  0
 10 11  1  0  0  0  0
 10 12  1  0  0  0  0
 10 13  1  0  0  0  0
 13 14  1  0  0  0  0
 13 15  1  0  0  0  0
 13 16  1  0  0  0  0
 16 17  1  0  0  0  0
 16 18  1  0  0  0  0
 16 19  1  0  0  0  0
 19 20  1  0  0  0  0
 19 21  1  0  0  0  0
 19 22  1  0  0  0  0
  1 23  1  0  0  0  0
 23 24  1  0  0  0  0
 23 25  1  0  0  0  0
 23 26  1  0  0  0  0
M  END
> <VConfSearch Rank>
149

> <Conf_Id>
143

> <Delta U+W>
0.915

> <U+W>
22.757

> <U>
71.994

> <W>
-49.237

> <W(PB)>
-51.537

> <W(SA)>
2.300

> <Valence>
2.376

> <Coulomb>
69.315

> <VdW>
0.303

> <VdW6>
-6.508

> <VdW12>
6.810

> <Bond>
0.182

> <Angle>
0.660

> <Pdih>
1.534

> <Idih>
0.000

> <Tether>
0.000

$$$$
VeraChem MOL file


 26 25  0  0  0  0  0  0  0  0999 V2000     
   18.3500   18.7637   25.3028 N   0  3  0  0  0  0  0  0  0  0  0  0
   17.7308   19.2108   24.6102 H   0  0  0  0  0  0  0  0  0  0  0  0
   18.7745   19.5390   25.8351 H   0  0  0  0  0  0  0  0  0  0  0  0
   19.4282   17.9625   24.5987 C   0  0  0  0  0  0  0  0  0  0  0  0
   18.9419   17.1594   24.0393 H   0  0  0  0  0  0  0  0  0  0  0  0
   20.0560   17.5090   25.3699 H   0  0  0  0  0  0  0  0  0  0  0  0
   20.3107   18.7962   23.6487 C   0  0  0  0  0  0  0  0  0  0  0  0
   20.7745   19.6205   24.2066 H   0  0  0  0  0  0  0  0  0  0  0  0
   21.1243   18.1509   23.2955 H   0  0  0  0  0  0  0  0  0  0  0  0
   19.5267   19.3477   22.4328 C   0  0  0  0  0  0  0  0  0  0  0  0
   18.6501   19.9068   22.7853 H   0  0  0  0  0  0  0  0  0  0  0  0
   19.1355   18.5083   21.8413 H   0  0  0  0  0  0  0  0  0  0  0  0
   20.3507   20.2855   21.5126 C   0  0  0  0  0  0  0  0  0  0  0  0
   19.6792   20.6427   20.7195 H   0  0  0  0  0  0  0  0  0  0  0  0
   20.6571   21.1839   22.0658 H   0  0  0  0  0  0  0  0  0  0  0  0
   21.5814   19.6241   20.8397 C   0  0  0  0  0  0  0  0  0  0  0  0
   21.6946   20.0421   19.8295 H   0  0  0  0  0  0  0  0  0  0  0  0
   21.4100   18.5474   20.7026 H   0  0  0  0  0  0  0  0  0  0  0  0
   22.9037   19.8657   21.6051 C   0  0  0  0  0  0  0  0  0  0  0  0
   22.8747   19.4556   22.6205 H   0  0  0  0  0  0  0  0  0  0  0  0
   23.1216   20.9389   21.6811 H   0  0  0  0  0  0  0  0  0  0  0  0
   23.7434   19.3927   21.0796 H   0  0  0  0  0  0  0  0  0  0  0  0
   17.5496   17.8560   26.2264 C   0  0  0  0  0  0  0  0  0  0  0  0
   18.2199   17.4195   26.9701 H   0  0  0  0  0  0  0  0  0  0  0  0
   16.7773   18.4449   26.7264 H   0  0  0  0  0  0  0  0  0  0  0  0
   17.0848   17.0631   25.6363 H   0  0  0  0  0  0  0  0  0  0  0  0
  1  2  1  0  0  0  0
  1  3  1  0  0  0  0
  1  4  1  0  0  0  0
  4  5  1  0  0  0  0
  4  6  1  0  0  0  0
  4  7  1  0  0  0  0
  7  8  1  0  0  0  0
  7  9  1  0  0  0  0
  7 10  1  0  0  0  0
 10 11  1  0  0  0  0
 10 12  1  0  0  0  0
 10 13  1  0  0  0  0
 13 14  1  0  0  0  0
 13 15  1  0  0  0  0
 13 16  1  0  0  0  0
 16 17  1  0  0  0  0
 16 18  1  0  0  0  0
 16 19  1  0  0  0  0
 19 20  1  0  0  0  0
 19 21  1  0  0  0  0
 19 22  1  0  0  0  0
  1 23  1  0  0  0  0
 23 24  1  0  0  0  0
 23 25  1  0  0  0  0
 23 26  1  0  0  0  0
M  END
> <VConfSearch Rank>
150

> <Conf_Id>
76

> <Delta U+W>
3.468

> <U+W>
25.310

> <U>
74.594

> <W>
-49.283

> <W(PB)>
-51.537

> <W(SA)>
2.253

> <Valence>
4.886

> <Coulomb>
69.332

> <VdW>
0.376

> <VdW6>
-7.329

> <VdW12>
7.705

> <Bond>
0.232

> <Angle>
1.251

> <Pdih>
3.403

> <Idih>
0.000

> <Tether>
0.000

$$$$
VeraChem MOL file


 26 25  0  0  0  0  0  0  0  0999 V2000     
   22.8193   18.4673   23.4304 N   0  3  0  0  0  0  0  0  0  0  0  0
   22.8603   19.2130   24.1424 H   0  0  0  0  0  0  0  0  0  0  0  0
   23.1604   18.9009   22.5584 H   0  0  0  0  0  0  0  0  0  0  0  0
   21.3915   17.9906   23.2536 C   0  0  0  0  0  0  0  0  0  0  0  0
   21.0670   17.5464   24.1980 H   0  0  0  0  0  0  0  0  0  0  0  0
   21.3910   17.2105   22.4881 H   0  0  0  0  0  0  0  0  0  0  0  0
   20.4199   19.1140   22.8491 C   0  0  0  0  0  0  0  0  0  0  0  0
   20.4458   19.9032   23.6088 H   0  0  0  0  0  0  0  0  0  0  0  0
   20.7610   19.5670   21.9087 H   0  0  0  0  0  0  0  0  0  0  0  0
   18.9798   18.5756   22.6707 C   0  0  0  0  0  0  0  0  0  0  0  0
   18.6449   18.0667   23.5852 H   0  0  0  0  0  0  0  0  0  0  0  0
   18.9982   17.8067   21.8857 H   0  0  0  0  0  0  0  0  0  0  0  0
   17.9563   19.6679   22.2636 C   0  0  0  0  0  0  0  0  0  0  0  0
   18.4507   20.4555   21.6785 H   0  0  0  0  0  0  0  0  0  0  0  0
   17.2223   19.2124   21.5844 H   0  0  0  0  0  0  0  0  0  0  0  0
   17.1710   20.2946   23.4444 C   0  0  0  0  0  0  0  0  0  0  0  0
   16.5954   19.5133   23.9601 H   0  0  0  0  0  0  0  0  0  0  0  0
   16.4309   20.9971   23.0362 H   0  0  0  0  0  0  0  0  0  0  0  0
   18.0506   21.0434   24.4695 C   0  0  0  0  0  0  0  0  0  0  0  0
   18.6890   21.7875   23.9760 H   0  0  0  0  0  0  0  0  0  0  0  0
   18.6891   20.3492   25.0294 H   0  0  0  0  0  0  0  0  0  0  0  0
   17.4233   21.5711   25.1996 H   0  0  0  0  0  0  0  0  0  0  0  0
   23.7098   17.2987   23.8295 C   0  0  0  0  0  0  0  0  0  0  0  0
   23.3495   16.8776   24.7706 H   0  0  0  0  0  0  0  0  0  0  0  0
   23.6762   16.5378   23.0466 H   0  0  0  0  0  0  0  0  0  0  0  0
   24.7348   17.6554   23.9534 H   0  0  0  0  0  0  0  0  0  0  0  0
  1  2  1  0  0  0  0
  1  3  1  0  0  0  0
  1  4  1  0  0  0  0
  4  5  1  0  0  0  0
  4  6  1  0  0  0  0
  4  7  1  0  0  0  0
  7  8  1  0  0  0  0
  7  9  1  0  0  0  0
  7 10  1  0  0  0  0
 10 11  1  0  0  0  0
 10 12  1  0  0  0  0
 10 13  1  0  0  0  0
 13 14  1  0  0  0  0
 13 15  1  0  0  0  0
 13 16  1  0  0  0  0
 16 17  1  0  0  0  0
 16 18  1  0  0  0  0
 16 19  1  0  0  0  0
 19 20  1  0  0  0  0
 19 21  1  0  0  0  0
 19 22  1  0  0  0  0
  1 23  1  0  0  0  0
 23 24  1  0  0  0  0
 23 25  1  0  0  0  0
 23 26  1  0  0  0  0
M  END
> <VConfSearch Rank>
151

> <Conf_Id>
123

> <Delta U+W>
3.101

> <U+W>
24.943

> <U>
74.070

> <W>
-49.127

> <W(PB)>
-51.421

> <W(SA)>
2.295

> <Valence>
4.690

> <Coulomb>
69.115

> <VdW>
0.266

> <VdW6>
-6.809

> <VdW12>
7.075

> <Bond>
0.212

> <Angle>
1.133

> <Pdih>
3.345

> <Idih>
0.000

> <Tether>
0.000

$$$$
VeraChem MOL file


 26 25  0  0  0  0  0  0  0  0999 V2000     
   19.4812   20.6510   25.3554 N   0  3  0  0  0  0  0  0  0  0  0  0
   18.9558   21.4192   24.9099 H   0  0  0  0  0  0  0  0  0  0  0  0
   20.4758   20.8567   25.1775 H   0  0  0  0  0  0  0  0  0  0  0  0
   19.1026   19.3251   24.7241 C   0  0  0  0  0  0  0  0  0  0  0  0
   18.0453   19.1488   24.9378 H   0  0  0  0  0  0  0  0  0  0  0  0
   19.6849   18.5402   25.2132 H   0  0  0  0  0  0  0  0  0  0  0  0
   19.3320   19.2679   23.2009 C   0  0  0  0  0  0  0  0  0  0  0  0
   18.9274   18.3198   22.8295 H   0  0  0  0  0  0  0  0  0  0  0  0
   18.7498   20.0618   22.7145 H   0  0  0  0  0  0  0  0  0  0  0  0
   20.8280   19.4005   22.8168 C   0  0  0  0  0  0  0  0  0  0  0  0
   21.4322   18.6711   23.3739 H   0  0  0  0  0  0  0  0  0  0  0  0
   21.1826   20.3917   23.1295 H   0  0  0  0  0  0  0  0  0  0  0  0
   21.0877   19.2530   21.2946 C   0  0  0  0  0  0  0  0  0  0  0  0
   20.2128   19.5926   20.7233 H   0  0  0  0  0  0  0  0  0  0  0  0
   21.9034   19.9357   21.0187 H   0  0  0  0  0  0  0  0  0  0  0  0
   21.4999   17.8286   20.8423 C   0  0  0  0  0  0  0  0  0  0  0  0
   22.4342   17.5390   21.3434 H   0  0  0  0  0  0  0  0  0  0  0  0
   21.7282   17.8567   19.7676 H   0  0  0  0  0  0  0  0  0  0  0  0
   20.4279   16.7452   21.0921 C   0  0  0  0  0  0  0  0  0  0  0  0
   19.4640   17.0323   20.6523 H   0  0  0  0  0  0  0  0  0  0  0  0
   20.2843   16.5659   22.1647 H   0  0  0  0  0  0  0  0  0  0  0  0
   20.7326   15.7929   20.6392 H   0  0  0  0  0  0  0  0  0  0  0  0
   19.2040   20.6107   26.8518 C   0  0  0  0  0  0  0  0  0  0  0  0
   19.7946   19.8115   27.3050 H   0  0  0  0  0  0  0  0  0  0  0  0
   19.4812   21.5704   27.2935 H   0  0  0  0  0  0  0  0  0  0  0  0
   18.1405   20.4230   27.0149 H   0  0  0  0  0  0  0  0  0  0  0  0
  1  2  1  0  0  0  0
  1  3  1  0  0  0  0
  1  4  1  0  0  0  0
  4  5  1  0  0  0  0
  4  6  1  0  0  0  0
  4  7  1  0  0  0  0
  7  8  1  0  0  0  0
  7  9  1  0  0  0  0
  7 10  1  0  0  0  0
 10 11  1  0  0  0  0
 10 12  1  0  0  0  0
 10 13  1  0  0  0  0
 13 14  1  0  0  0  0
 13 15  1  0  0  0  0
 13 16  1  0  0  0  0
 16 17  1  0  0  0  0
 16 18  1  0  0  0  0
 16 19  1  0  0  0  0
 19 20  1  0  0  0  0
 19 21  1  0  0  0  0
 19 22  1  0  0  0  0
  1 23  1  0  0  0  0
 23 24  1  0  0  0  0
 23 25  1  0  0  0  0
 23 26  1  0  0  0  0
M  END
> <VConfSearch Rank>
152

> <Conf_Id>
111

> <Delta U+W>
3.383

> <U+W>
25.225

> <U>
74.516

> <W>
-49.292

> <W(PB)>
-51.558

> <W(SA)>
2.266

> <Valence>
4.842

> <Coulomb>
69.333

> <VdW>
0.342

> <VdW6>
-7.369

> <VdW12>
7.711

> <Bond>
0.232

> <Angle>
1.153

> <Pdih>
3.457

> <Idih>
0.000

> <Tether>
0.000

$$$$
VeraChem MOL file


 26 25  0  0  0  0  0  0  0  0999 V2000     
   19.1243   16.9491   23.7592 N   0  3  0  0  0  0  0  0  0  0  0  0
   18.1626   16.7905   23.4207 H   0  0  0  0  0  0  0  0  0  0  0  0
   19.0629   17.7532   24.4016 H   0  0  0  0  0  0  0  0  0  0  0  0
   20.0377   17.2843   22.5964 C   0  0  0  0  0  0  0  0  0  0  0  0
   20.0660   16.4138   21.9361 H   0  0  0  0  0  0  0  0  0  0  0  0
   21.0435   17.4414   22.9928 H   0  0  0  0  0  0  0  0  0  0  0  0
   19.5941   18.5233   21.7910 C   0  0  0  0  0  0  0  0  0  0  0  0
   20.2838   18.6596   20.9475 H   0  0  0  0  0  0  0  0  0  0  0  0
   18.6073   18.3294   21.3500 H   0  0  0  0  0  0  0  0  0  0  0  0
   19.5360   19.8319   22.6194 C   0  0  0  0  0  0  0  0  0  0  0  0
   18.7847   19.7388   23.4147 H   0  0  0  0  0  0  0  0  0  0  0  0
   19.1837   20.6357   21.9599 H   0  0  0  0  0  0  0  0  0  0  0  0
   20.9034   20.2272   23.2333 C   0  0  0  0  0  0  0  0  0  0  0  0
   21.2682   19.4141   23.8747 H   0  0  0  0  0  0  0  0  0  0  0  0
   21.6474   20.3473   22.4338 H   0  0  0  0  0  0  0  0  0  0  0  0
   20.8466   21.5198   24.0834 C   0  0  0  0  0  0  0  0  0  0  0  0
   21.8207   21.6623   24.5720 H   0  0  0  0  0  0  0  0  0  0  0  0
   20.1124   21.4013   24.8926 H   0  0  0  0  0  0  0  0  0  0  0  0
   20.5145   22.7857   23.2607 C   0  0  0  0  0  0  0  0  0  0  0  0
   19.4964   22.7482   22.8541 H   0  0  0  0  0  0  0  0  0  0  0  0
   21.2151   22.9088   22.4247 H   0  0  0  0  0  0  0  0  0  0  0  0
   20.5840   23.6819   23.8907 H   0  0  0  0  0  0  0  0  0  0  0  0
   19.6446   15.7194   24.4900 C   0  0  0  0  0  0  0  0  0  0  0  0
   18.9786   15.4902   25.3249 H   0  0  0  0  0  0  0  0  0  0  0  0
   19.6721   14.8751   23.7976 H   0  0  0  0  0  0  0  0  0  0  0  0
   20.6499   15.9232   24.8653 H   0  0  0  0  0  0  0  0  0  0  0  0
  1  2  1  0  0  0  0
  1  3  1  0  0  0  0
  1  4  1  0  0  0  0
  4  5  1  0  0  0  0
  4  6  1  0  0  0  0
  4  7  1  0  0  0  0
  7  8  1  0  0  0  0
  7  9  1  0  0  0  0
  7 10  1  0  0  0  0
 10 11  1  0  0  0  0
 10 12  1  0  0  0  0
 10 13  1  0  0  0  0
 13 14  1  0  0  0  0
 13 15  1  0  0  0  0
 13 16  1  0  0  0  0
 16 17  1  0  0  0  0
 16 18  1  0  0  0  0
 16 19  1  0  0  0  0
 19 20  1  0  0  0  0
 19 21  1  0  0  0  0
 19 22  1  0  0  0  0
  1 23  1  0  0  0  0
 23 24  1  0  0  0  0
 23 25  1  0  0  0  0
 23 26  1  0  0  0  0
M  END
> <VConfSearch Rank>
153

> <Conf_Id>
126

> <Delta U+W>
1.519

> <U+W>
23.361

> <U>
72.579

> <W>
-49.218

> <W(PB)>
-51.496

> <W(SA)>
2.279

> <Valence>
2.678

> <Coulomb>
69.622

> <VdW>
0.279

> <VdW6>
-7.328

> <VdW12>
7.608

> <Bond>
0.212

> <Angle>
0.911

> <Pdih>
1.555

> <Idih>
0.000

> <Tether>
0.000

$$$$
VeraChem MOL file


 26 25  0  0  0  0  0  0  0  0999 V2000     
   22.1475   20.1381   23.8869 N   0  3  0  0  0  0  0  0  0  0  0  0
   21.2543   20.3289   24.3652 H   0  0  0  0  0  0  0  0  0  0  0  0
   22.3791   21.0043   23.3763 H   0  0  0  0  0  0  0  0  0  0  0  0
   21.9779   18.9885   22.9132 C   0  0  0  0  0  0  0  0  0  0  0  0
   21.7376   18.0919   23.4893 H   0  0  0  0  0  0  0  0  0  0  0  0
   22.9402   18.8268   22.4209 H   0  0  0  0  0  0  0  0  0  0  0  0
   20.8909   19.2300   21.8452 C   0  0  0  0  0  0  0  0  0  0  0  0
   21.1741   20.0986   21.2360 H   0  0  0  0  0  0  0  0  0  0  0  0
   20.8727   18.3708   21.1616 H   0  0  0  0  0  0  0  0  0  0  0  0
   19.4703   19.4522   22.4236 C   0  0  0  0  0  0  0  0  0  0  0  0
   18.7881   19.6420   21.5848 H   0  0  0  0  0  0  0  0  0  0  0  0
   19.4548   20.3604   23.0406 H   0  0  0  0  0  0  0  0  0  0  0  0
   18.9524   18.2476   23.2504 C   0  0  0  0  0  0  0  0  0  0  0  0
   18.9418   17.3454   22.6234 H   0  0  0  0  0  0  0  0  0  0  0  0
   19.6463   18.0415   24.0758 H   0  0  0  0  0  0  0  0  0  0  0  0
   17.5443   18.4736   23.8529 C   0  0  0  0  0  0  0  0  0  0  0  0
   17.5516   19.3682   24.4911 H   0  0  0  0  0  0  0  0  0  0  0  0
   17.3045   17.6282   24.5129 H   0  0  0  0  0  0  0  0  0  0  0  0
   16.4308   18.6030   22.7884 C   0  0  0  0  0  0  0  0  0  0  0  0
   16.4240   17.7352   22.1161 H   0  0  0  0  0  0  0  0  0  0  0  0
   16.5551   19.5080   22.1812 H   0  0  0  0  0  0  0  0  0  0  0  0
   15.4456   18.6623   23.2688 H   0  0  0  0  0  0  0  0  0  0  0  0
   23.2352   19.8052   24.8984 C   0  0  0  0  0  0  0  0  0  0  0  0
   22.9521   18.9041   25.4468 H   0  0  0  0  0  0  0  0  0  0  0  0
   24.1767   19.6371   24.3709 H   0  0  0  0  0  0  0  0  0  0  0  0
   23.3460   20.6406   25.5934 H   0  0  0  0  0  0  0  0  0  0  0  0
  1  2  1  0  0  0  0
  1  3  1  0  0  0  0
  1  4  1  0  0  0  0
  4  5  1  0  0  0  0
  4  6  1  0  0  0  0
  4  7  1  0  0  0  0
  7  8  1  0  0  0  0
  7  9  1  0  0  0  0
  7 10  1  0  0  0  0
 10 11  1  0  0  0  0
 10 12  1  0  0  0  0
 10 13  1  0  0  0  0
 13 14  1  0  0  0  0
 13 15  1  0  0  0  0
 13 16  1  0  0  0  0
 16 17  1  0  0  0  0
 16 18  1  0  0  0  0
 16 19  1  0  0  0  0
 19 20  1  0  0  0  0
 19 21  1  0  0  0  0
 19 22  1  0  0  0  0
  1 23  1  0  0  0  0
 23 24  1  0  0  0  0
 23 25  1  0  0  0  0
 23 26  1  0  0  0  0
M  END
> <VConfSearch Rank>
154

> <Conf_Id>
134

> <Delta U+W>
1.464

> <U+W>
23.306

> <U>
72.579

> <W>
-49.273

> <W(PB)>
-51.540

> <W(SA)>
2.267

> <Valence>
2.677

> <Coulomb>
69.622

> <VdW>
0.280

> <VdW6>
-7.328

> <VdW12>
7.608

> <Bond>
0.212

> <Angle>
0.911

> <Pdih>
1.555

> <Idih>
0.000

> <Tether>
0.000

$$$$
VeraChem MOL file


 26 25  0  0  0  0  0  0  0  0999 V2000     
   21.5372   20.4094   25.3395 N   0  3  0  0  0  0  0  0  0  0  0  0
   21.4163   21.2521   24.7564 H   0  0  0  0  0  0  0  0  0  0  0  0
   22.4979   20.0820   25.1532 H   0  0  0  0  0  0  0  0  0  0  0  0
   20.5352   19.3461   24.9365 C   0  0  0  0  0  0  0  0  0  0  0  0
   19.5341   19.7338   25.1416 H   0  0  0  0  0  0  0  0  0  0  0  0
   20.7020   18.4712   25.5698 H   0  0  0  0  0  0  0  0  0  0  0  0
   20.6400   18.9409   23.4551 C   0  0  0  0  0  0  0  0  0  0  0  0
   20.4891   19.8299   22.8299 H   0  0  0  0  0  0  0  0  0  0  0  0
   21.6517   18.5668   23.2494 H   0  0  0  0  0  0  0  0  0  0  0  0
   19.5997   17.8548   23.0935 C   0  0  0  0  0  0  0  0  0  0  0  0
   18.5855   18.2411   23.2616 H   0  0  0  0  0  0  0  0  0  0  0  0
   19.7165   17.0060   23.7817 H   0  0  0  0  0  0  0  0  0  0  0  0
   19.7317   17.3273   21.6411 C   0  0  0  0  0  0  0  0  0  0  0  0
   20.7111   16.8431   21.5245 H   0  0  0  0  0  0  0  0  0  0  0  0
   18.9857   16.5360   21.4847 H   0  0  0  0  0  0  0  0  0  0  0  0
   19.5679   18.3962   20.5303 C   0  0  0  0  0  0  0  0  0  0  0  0
   19.6818   17.9052   19.5537 H   0  0  0  0  0  0  0  0  0  0  0  0
   20.3789   19.1342   20.5904 H   0  0  0  0  0  0  0  0  0  0  0  0
   18.2016   19.1178   20.5674 C   0  0  0  0  0  0  0  0  0  0  0  0
   17.3738   18.3980   20.5275 H   0  0  0  0  0  0  0  0  0  0  0  0
   18.1002   19.7938   19.7086 H   0  0  0  0  0  0  0  0  0  0  0  0
   18.0896   19.7210   21.4770 H   0  0  0  0  0  0  0  0  0  0  0  0
   21.3657   20.7508   26.8132 C   0  0  0  0  0  0  0  0  0  0  0  0
   21.5308   19.8521   27.4116 H   0  0  0  0  0  0  0  0  0  0  0  0
   22.0931   21.5171   27.0904 H   0  0  0  0  0  0  0  0  0  0  0  0
   20.3534   21.1256   26.9797 H   0  0  0  0  0  0  0  0  0  0  0  0
  1  2  1  0  0  0  0
  1  3  1  0  0  0  0
  1  4  1  0  0  0  0
  4  5  1  0  0  0  0
  4  6  1  0  0  0  0
  4  7  1  0  0  0  0
  7  8  1  0  0  0  0
  7  9  1  0  0  0  0
  7 10  1  0  0  0  0
 10 11  1  0  0  0  0
 10 12  1  0  0  0  0
 10 13  1  0  0  0  0
 13 14  1  0  0  0  0
 13 15  1  0  0  0  0
 13 16  1  0  0  0  0
 16 17  1  0  0  0  0
 16 18  1  0  0  0  0
 16 19  1  0  0  0  0
 19 20  1  0  0  0  0
 19 21  1  0  0  0  0
 19 22  1  0  0  0  0
  1 23  1  0  0  0  0
 23 24  1  0  0  0  0
 23 25  1  0  0  0  0
 23 26  1  0  0  0  0
M  END
> <VConfSearch Rank>
155

> <Conf_Id>
30

> <Delta U+W>
0.910

> <U+W>
22.752

> <U>
71.870

> <W>
-49.118

> <W(PB)>
-51.409

> <W(SA)>
2.290

> <Valence>
2.682

> <Coulomb>
68.933

> <VdW>
0.255

> <VdW6>
-6.833

> <VdW12>
7.088

> <Bond>
0.205

> <Angle>
1.003

> <Pdih>
1.473

> <Idih>
0.000

> <Tether>
0.000

$$$$
VeraChem MOL file


 26 25  0  0  0  0  0  0  0  0999 V2000     
   22.2468   18.7520   21.7100 N   0  3  0  0  0  0  0  0  0  0  0  0
   21.8965   19.1018   20.8045 H   0  0  0  0  0  0  0  0  0  0  0  0
   22.0157   17.7465   21.7241 H   0  0  0  0  0  0  0  0  0  0  0  0
   21.5496   19.4652   22.8510 C   0  0  0  0  0  0  0  0  0  0  0  0
   21.8130   20.5245   22.7951 H   0  0  0  0  0  0  0  0  0  0  0  0
   21.9417   19.0619   23.7881 H   0  0  0  0  0  0  0  0  0  0  0  0
   20.0183   19.3100   22.8211 C   0  0  0  0  0  0  0  0  0  0  0  0
   19.6299   19.7018   21.8717 H   0  0  0  0  0  0  0  0  0  0  0  0
   19.7665   18.2426   22.8593 H   0  0  0  0  0  0  0  0  0  0  0  0
   19.3537   20.0548   24.0026 C   0  0  0  0  0  0  0  0  0  0  0  0
   19.6806   21.1039   23.9920 H   0  0  0  0  0  0  0  0  0  0  0  0
   19.7117   19.6376   24.9534 H   0  0  0  0  0  0  0  0  0  0  0  0
   17.8036   20.0262   23.9618 C   0  0  0  0  0  0  0  0  0  0  0  0
   17.4182   20.6094   24.8095 H   0  0  0  0  0  0  0  0  0  0  0  0
   17.4603   20.5482   23.0580 H   0  0  0  0  0  0  0  0  0  0  0  0
   17.1656   18.6136   23.9951 C   0  0  0  0  0  0  0  0  0  0  0  0
   17.4382   18.0521   23.0915 H   0  0  0  0  0  0  0  0  0  0  0  0
   16.0726   18.7232   23.9611 H   0  0  0  0  0  0  0  0  0  0  0  0
   17.5445   17.7968   25.2513 C   0  0  0  0  0  0  0  0  0  0  0  0
   18.6154   17.5594   25.2692 H   0  0  0  0  0  0  0  0  0  0  0  0
   16.9954   16.8465   25.2721 H   0  0  0  0  0  0  0  0  0  0  0  0
   17.2983   18.3468   26.1688 H   0  0  0  0  0  0  0  0  0  0  0  0
   23.7520   18.9554   21.8146 C   0  0  0  0  0  0  0  0  0  0  0  0
   24.2419   18.4371   20.9873 H   0  0  0  0  0  0  0  0  0  0  0  0
   23.9745   20.0235   21.7641 H   0  0  0  0  0  0  0  0  0  0  0  0
   24.1042   18.5485   22.7651 H   0  0  0  0  0  0  0  0  0  0  0  0
  1  2  1  0  0  0  0
  1  3  1  0  0  0  0
  1  4  1  0  0  0  0
  4  5  1  0  0  0  0
  4  6  1  0  0  0  0
  4  7  1  0  0  0  0
  7  8  1  0  0  0  0
  7  9  1  0  0  0  0
  7 10  1  0  0  0  0
 10 11  1  0  0  0  0
 10 12  1  0  0  0  0
 10 13  1  0  0  0  0
 13 14  1  0  0  0  0
 13 15  1  0  0  0  0
 13 16  1  0  0  0  0
 16 17  1  0  0  0  0
 16 18  1  0  0  0  0
 16 19  1  0  0  0  0
 19 20  1  0  0  0  0
 19 21  1  0  0  0  0
 19 22  1  0  0  0  0
  1 23  1  0  0  0  0
 23 24  1  0  0  0  0
 23 25  1  0  0  0  0
 23 26  1  0  0  0  0
M  END
> <VConfSearch Rank>
156

> <Conf_Id>
29

> <Delta U+W>
0.886

> <U+W>
22.729

> <U>
71.870

> <W>
-49.141

> <W(PB)>
-51.404

> <W(SA)>
2.262

> <Valence>
2.682

> <Coulomb>
68.933

> <VdW>
0.255

> <VdW6>
-6.833

> <VdW12>
7.088

> <Bond>
0.205

> <Angle>
1.003

> <Pdih>
1.473

> <Idih>
0.000

> <Tether>
0.000

$$$$
VeraChem MOL file


 26 25  0  0  0  0  0  0  0  0999 V2000     
   21.1751   21.2795   24.1395 N   0  3  0  0  0  0  0  0  0  0  0  0
   21.7037   21.8099   23.4295 H   0  0  0  0  0  0  0  0  0  0  0  0
   21.8627   20.6478   24.5786 H   0  0  0  0  0  0  0  0  0  0  0  0
   20.0735   20.4759   23.4785 C   0  0  0  0  0  0  0  0  0  0  0  0
   19.3760   21.1788   23.0162 H   0  0  0  0  0  0  0  0  0  0  0  0
   19.5435   19.9293   24.2623 H   0  0  0  0  0  0  0  0  0  0  0  0
   20.5930   19.4877   22.4170 C   0  0  0  0  0  0  0  0  0  0  0  0
   21.1542   20.0424   21.6534 H   0  0  0  0  0  0  0  0  0  0  0  0
   21.3050   18.7907   22.8771 H   0  0  0  0  0  0  0  0  0  0  0  0
   19.4525   18.6999   21.7258 C   0  0  0  0  0  0  0  0  0  0  0  0
   19.8852   18.0299   20.9708 H   0  0  0  0  0  0  0  0  0  0  0  0
   18.8214   19.4055   21.1679 H   0  0  0  0  0  0  0  0  0  0  0  0
   18.5489   17.8825   22.6883 C   0  0  0  0  0  0  0  0  0  0  0  0
   17.9872   18.5707   23.3342 H   0  0  0  0  0  0  0  0  0  0  0  0
   17.7918   17.3532   22.0934 H   0  0  0  0  0  0  0  0  0  0  0  0
   19.2933   16.8546   23.5783 C   0  0  0  0  0  0  0  0  0  0  0  0
   18.5578   16.3500   24.2203 H   0  0  0  0  0  0  0  0  0  0  0  0
   19.9824   17.3709   24.2600 H   0  0  0  0  0  0  0  0  0  0  0  0
   20.0627   15.7862   22.7687 C   0  0  0  0  0  0  0  0  0  0  0  0
   20.4998   15.0358   23.4400 H   0  0  0  0  0  0  0  0  0  0  0  0
   20.8829   16.2314   22.1921 H   0  0  0  0  0  0  0  0  0  0  0  0
   19.3955   15.2641   22.0707 H   0  0  0  0  0  0  0  0  0  0  0  0
   20.5781   22.2219   25.1753 C   0  0  0  0  0  0  0  0  0  0  0  0
   21.3816   22.7949   25.6435 H   0  0  0  0  0  0  0  0  0  0  0  0
   19.8795   22.9015   24.6822 H   0  0  0  0  0  0  0  0  0  0  0  0
   20.0526   21.6365   25.9330 H   0  0  0  0  0  0  0  0  0  0  0  0
  1  2  1  0  0  0  0
  1  3  1  0  0  0  0
  1  4  1  0  0  0  0
  4  5  1  0  0  0  0
  4  6  1  0  0  0  0
  4  7  1  0  0  0  0
  7  8  1  0  0  0  0
  7  9  1  0  0  0  0
  7 10  1  0  0  0  0
 10 11  1  0  0  0  0
 10 12  1  0  0  0  0
 10 13  1  0  0  0  0
 13 14  1  0  0  0  0
 13 15  1  0  0  0  0
 13 16  1  0  0  0  0
 16 17  1  0  0  0  0
 16 18  1  0  0  0  0
 16 19  1  0  0  0  0
 19 20  1  0  0  0  0
 19 21  1  0  0  0  0
 19 22  1  0  0  0  0
  1 23  1  0  0  0  0
 23 24  1  0  0  0  0
 23 25  1  0  0  0  0
 23 26  1  0  0  0  0
M  END
> <VConfSearch Rank>
157

> <Conf_Id>
82

> <Delta U+W>
1.026

> <U+W>
22.868

> <U>
72.455

> <W>
-49.586

> <W(PB)>
-51.821

> <W(SA)>
2.234

> <Valence>
2.908

> <Coulomb>
69.435

> <VdW>
0.112

> <VdW6>
-7.765

> <VdW12>
7.877

> <Bond>
0.233

> <Angle>
1.170

> <Pdih>
1.506

> <Idih>
0.000

> <Tether>
0.000

$$$$
VeraChem MOL file


 26 25  0  0  0  0  0  0  0  0999 V2000     
   18.0776   20.7729   23.3315 N   0  3  0  0  0  0  0  0  0  0  0  0
   18.7842   21.5024   23.1494 H   0  0  0  0  0  0  0  0  0  0  0  0
   17.6855   20.9959   24.2596 H   0  0  0  0  0  0  0  0  0  0  0  0
   18.7308   19.4058   23.3548 C   0  0  0  0  0  0  0  0  0  0  0  0
   19.1339   19.2120   22.3579 H   0  0  0  0  0  0  0  0  0  0  0  0
   17.9538   18.6658   23.5625 H   0  0  0  0  0  0  0  0  0  0  0  0
   19.8545   19.2850   24.4017 C   0  0  0  0  0  0  0  0  0  0  0  0
   20.6280   20.0378   24.2029 H   0  0  0  0  0  0  0  0  0  0  0  0
   19.4471   19.5164   25.3948 H   0  0  0  0  0  0  0  0  0  0  0  0
   20.4877   17.8719   24.4376 C   0  0  0  0  0  0  0  0  0  0  0  0
   19.7250   17.1495   24.7596 H   0  0  0  0  0  0  0  0  0  0  0  0
   21.2649   17.8463   25.2130 H   0  0  0  0  0  0  0  0  0  0  0  0
   21.0855   17.3913   23.0875 C   0  0  0  0  0  0  0  0  0  0  0  0
   21.5206   16.3929   23.2325 H   0  0  0  0  0  0  0  0  0  0  0  0
   20.2761   17.2562   22.3574 H   0  0  0  0  0  0  0  0  0  0  0  0
   22.1631   18.3219   22.4748 C   0  0  0  0  0  0  0  0  0  0  0  0
   21.7243   19.2963   22.2214 H   0  0  0  0  0  0  0  0  0  0  0  0
   22.5003   17.8879   21.5231 H   0  0  0  0  0  0  0  0  0  0  0  0
   23.3909   18.5248   23.3913 C   0  0  0  0  0  0  0  0  0  0  0  0
   23.1221   19.0557   24.3129 H   0  0  0  0  0  0  0  0  0  0  0  0
   24.1590   19.1190   22.8797 H   0  0  0  0  0  0  0  0  0  0  0  0
   23.8402   17.5621   23.6678 H   0  0  0  0  0  0  0  0  0  0  0  0
   16.9879   20.8079   22.2690 C   0  0  0  0  0  0  0  0  0  0  0  0
   16.2358   20.0506   22.5009 H   0  0  0  0  0  0  0  0  0  0  0  0
   16.5254   21.7974   22.2628 H   0  0  0  0  0  0  0  0  0  0  0  0
   17.4317   20.6021   21.2925 H   0  0  0  0  0  0  0  0  0  0  0  0
  1  2  1  0  0  0  0
  1  3  1  0  0  0  0
  1  4  1  0  0  0  0
  4  5  1  0  0  0  0
  4  6  1  0  0  0  0
  4  7  1  0  0  0  0
  7  8  1  0  0  0  0
  7  9  1  0  0  0  0
  7 10  1  0  0  0  0
 10 11  1  0  0  0  0
 10 12  1  0  0  0  0
 10 13  1  0  0  0  0
 13 14  1  0  0  0  0
 13 15  1  0  0  0  0
 13 16  1  0  0  0  0
 16 17  1  0  0  0  0
 16 18  1  0  0  0  0
 16 19  1  0  0  0  0
 19 20  1  0  0  0  0
 19 21  1  0  0  0  0
 19 22  1  0  0  0  0
  1 23  1  0  0  0  0
 23 24  1  0  0  0  0
 23 25  1  0  0  0  0
 23 26  1  0  0  0  0
M  END
> <VConfSearch Rank>
158

> <Conf_Id>
71

> <Delta U+W>
1.096

> <U+W>
22.938

> <U>
72.455

> <W>
-49.517

> <W(PB)>
-51.795

> <W(SA)>
2.278

> <Valence>
2.908

> <Coulomb>
69.435

> <VdW>
0.112

> <VdW6>
-7.766

> <VdW12>
7.877

> <Bond>
0.233

> <Angle>
1.170

> <Pdih>
1.506

> <Idih>
0.000

> <Tether>
0.000

$$$$
VeraChem MOL file


 26 25  0  0  0  0  0  0  0  0999 V2000     
   18.2651   18.3584   21.7301 N   0  3  0  0  0  0  0  0  0  0  0  0
   18.7571   17.7353   22.3878 H   0  0  0  0  0  0  0  0  0  0  0  0
   18.2237   17.8350   20.8413 H   0  0  0  0  0  0  0  0  0  0  0  0
   19.0623   19.6379   21.5323 C   0  0  0  0  0  0  0  0  0  0  0  0
   18.5000   20.2765   20.8463 H   0  0  0  0  0  0  0  0  0  0  0  0
   20.0001   19.3659   21.0420 H   0  0  0  0  0  0  0  0  0  0  0  0
   19.3776   20.4216   22.8268 C   0  0  0  0  0  0  0  0  0  0  0  0
   19.9588   21.3150   22.5627 H   0  0  0  0  0  0  0  0  0  0  0  0
   18.4414   20.7904   23.2653 H   0  0  0  0  0  0  0  0  0  0  0  0
   20.1530   19.6045   23.8909 C   0  0  0  0  0  0  0  0  0  0  0  0
   19.5459   18.7510   24.2208 H   0  0  0  0  0  0  0  0  0  0  0  0
   20.2902   20.2409   24.7746 H   0  0  0  0  0  0  0  0  0  0  0  0
   21.5335   19.1065   23.3917 C   0  0  0  0  0  0  0  0  0  0  0  0
   21.4007   18.4943   22.4901 H   0  0  0  0  0  0  0  0  0  0  0  0
   22.1507   19.9652   23.0934 H   0  0  0  0  0  0  0  0  0  0  0  0
   22.2984   18.2603   24.4384 C   0  0  0  0  0  0  0  0  0  0  0  0
   23.2054   17.8553   23.9682 H   0  0  0  0  0  0  0  0  0  0  0  0
   21.6912   17.3924   24.7311 H   0  0  0  0  0  0  0  0  0  0  0  0
   22.7066   19.0581   25.6980 C   0  0  0  0  0  0  0  0  0  0  0  0
   21.8306   19.3784   26.2752 H   0  0  0  0  0  0  0  0  0  0  0  0
   23.2875   19.9501   25.4297 H   0  0  0  0  0  0  0  0  0  0  0  0
   23.3278   18.4401   26.3591 H   0  0  0  0  0  0  0  0  0  0  0  0
   16.8541   18.6587   22.2223 C   0  0  0  0  0  0  0  0  0  0  0  0
   16.3036   17.7208   22.3234 H   0  0  0  0  0  0  0  0  0  0  0  0
   16.9088   19.1589   23.1913 H   0  0  0  0  0  0  0  0  0  0  0  0
   16.3520   19.3049   21.4990 H   0  0  0  0  0  0  0  0  0  0  0  0
  1  2  1  0  0  0  0
  1  3  1  0  0  0  0
  1  4  1  0  0  0  0
  4  5  1  0  0  0  0
  4  6  1  0  0  0  0
  4  7  1  0  0  0  0
  7  8  1  0  0  0  0
  7  9  1  0  0  0  0
  7 10  1  0  0  0  0
 10 11  1  0  0  0  0
 10 12  1  0  0  0  0
 10 13  1  0  0  0  0
 13 14  1  0  0  0  0
 13 15  1  0  0  0  0
 13 16  1  0  0  0  0
 16 17  1  0  0  0  0
 16 18  1  0  0  0  0
 16 19  1  0  0  0  0
 19 20  1  0  0  0  0
 19 21  1  0  0  0  0
 19 22  1  0  0  0  0
  1 23  1  0  0  0  0
 23 24  1  0  0  0  0
 23 25  1  0  0  0  0
 23 26  1  0  0  0  0
M  END
> <VConfSearch Rank>
159

> <Conf_Id>
84

> <Delta U+W>
1.456

> <U+W>
23.298

> <U>
73.042

> <W>
-49.744

> <W(PB)>
-51.966

> <W(SA)>
2.222

> <Valence>
2.938

> <Coulomb>
69.625

> <VdW>
0.478

> <VdW6>
-8.182

> <VdW12>
8.660

> <Bond>
0.253

> <Angle>
1.038

> <Pdih>
1.647

> <Idih>
0.000

> <Tether>
0.000

$$$$
VeraChem MOL file


 26 25  0  0  0  0  0  0  0  0999 V2000     
   20.6802   18.2401   25.3483 N   0  3  0  0  0  0  0  0  0  0  0  0
   20.3723   19.2132   25.2019 H   0  0  0  0  0  0  0  0  0  0  0  0
   21.6502   18.3053   25.6938 H   0  0  0  0  0  0  0  0  0  0  0  0
   20.6442   17.4825   24.0355 C   0  0  0  0  0  0  0  0  0  0  0  0
   19.6041   17.4311   23.7049 H   0  0  0  0  0  0  0  0  0  0  0  0
   20.9885   16.4639   24.2314 H   0  0  0  0  0  0  0  0  0  0  0  0
   21.5131   18.1126   22.9273 C   0  0  0  0  0  0  0  0  0  0  0  0
   22.5630   18.1110   23.2489 H   0  0  0  0  0  0  0  0  0  0  0  0
   21.4655   17.4719   22.0368 H   0  0  0  0  0  0  0  0  0  0  0  0
   21.0972   19.5546   22.5414 C   0  0  0  0  0  0  0  0  0  0  0  0
   21.7788   19.9167   21.7593 H   0  0  0  0  0  0  0  0  0  0  0  0
   21.2353   20.2263   23.3993 H   0  0  0  0  0  0  0  0  0  0  0  0
   19.6399   19.6526   22.0291 C   0  0  0  0  0  0  0  0  0  0  0  0
   19.5001   18.9615   21.1863 H   0  0  0  0  0  0  0  0  0  0  0  0
   18.9418   19.3388   22.8166 H   0  0  0  0  0  0  0  0  0  0  0  0
   19.2842   21.0878   21.5811 C   0  0  0  0  0  0  0  0  0  0  0  0
   19.9702   21.4093   20.7849 H   0  0  0  0  0  0  0  0  0  0  0  0
   19.4241   21.7841   22.4198 H   0  0  0  0  0  0  0  0  0  0  0  0
   17.8298   21.1846   21.0729 C   0  0  0  0  0  0  0  0  0  0  0  0
   17.6677   20.5237   20.2114 H   0  0  0  0  0  0  0  0  0  0  0  0
   17.5963   22.2102   20.7589 H   0  0  0  0  0  0  0  0  0  0  0  0
   17.1171   20.9027   21.8589 H   0  0  0  0  0  0  0  0  0  0  0  0
   19.7923   17.5467   26.3720 C   0  0  0  0  0  0  0  0  0  0  0  0
   20.1560   16.5294   26.5321 H   0  0  0  0  0  0  0  0  0  0  0  0
   19.8268   18.1029   27.3114 H   0  0  0  0  0  0  0  0  0  0  0  0
   18.7667   17.5184   25.9974 H   0  0  0  0  0  0  0  0  0  0  0  0
  1  2  1  0  0  0  0
  1  3  1  0  0  0  0
  1  4  1  0  0  0  0
  4  5  1  0  0  0  0
  4  6  1  0  0  0  0
  4  7  1  0  0  0  0
  7  8  1  0  0  0  0
  7  9  1  0  0  0  0
  7 10  1  0  0  0  0
 10 11  1  0  0  0  0
 10 12  1  0  0  0  0
 10 13  1  0  0  0  0
 13 14  1  0  0  0  0
 13 15  1  0  0  0  0
 13 16  1  0  0  0  0
 16 17  1  0  0  0  0
 16 18  1  0  0  0  0
 16 19  1  0  0  0  0
 19 20  1  0  0  0  0
 19 21  1  0  0  0  0
 19 22  1  0  0  0  0
  1 23  1  0  0  0  0
 23 24  1  0  0  0  0
 23 25  1  0  0  0  0
 23 26  1  0  0  0  0
M  END
> <VConfSearch Rank>
160

> <Conf_Id>
73

> <Delta U+W>
0.884

> <U+W>
22.726

> <U>
71.905

> <W>
-49.179

> <W(PB)>
-51.494

> <W(SA)>
2.315

> <Valence>
2.125

> <Coulomb>
69.686

> <VdW>
0.093

> <VdW6>
-6.766

> <VdW12>
6.859

> <Bond>
0.169

> <Angle>
0.621

> <Pdih>
1.336

> <Idih>
0.000

> <Tether>
0.000

$$$$
VeraChem MOL file


 26 25  0  0  0  0  0  0  0  0999 V2000     
   16.9808   18.0853   23.0695 N   0  3  0  0  0  0  0  0  0  0  0  0
   16.8239   18.0099   24.0866 H   0  0  0  0  0  0  0  0  0  0  0  0
   17.2030   17.1281   22.7544 H   0  0  0  0  0  0  0  0  0  0  0  0
   18.1459   19.0125   22.7873 C   0  0  0  0  0  0  0  0  0  0  0  0
   17.8743   20.0099   23.1421 H   0  0  0  0  0  0  0  0  0  0  0  0
   18.2833   19.0581   21.7040 H   0  0  0  0  0  0  0  0  0  0  0  0
   19.4572   18.5636   23.4573 C   0  0  0  0  0  0  0  0  0  0  0  0
   19.3099   18.5032   24.5439 H   0  0  0  0  0  0  0  0  0  0  0  0
   19.7176   17.5546   23.1105 H   0  0  0  0  0  0  0  0  0  0  0  0
   20.6148   19.5369   23.1424 C   0  0  0  0  0  0  0  0  0  0  0  0
   20.3483   20.5462   23.4860 H   0  0  0  0  0  0  0  0  0  0  0  0
   20.7554   19.5989   22.0542 H   0  0  0  0  0  0  0  0  0  0  0  0
   21.9374   19.0960   23.8102 C   0  0  0  0  0  0  0  0  0  0  0  0
   21.7971   19.0341   24.8983 H   0  0  0  0  0  0  0  0  0  0  0  0
   22.2041   18.0868   23.4667 H   0  0  0  0  0  0  0  0  0  0  0  0
   23.0950   20.0696   23.4950 C   0  0  0  0  0  0  0  0  0  0  0  0
   22.8340   21.0803   23.8390 H   0  0  0  0  0  0  0  0  0  0  0  0
   23.2410   20.1331   22.4075 H   0  0  0  0  0  0  0  0  0  0  0  0
   24.4139   19.6262   24.1634 C   0  0  0  0  0  0  0  0  0  0  0  0
   25.2233   20.3294   23.9282 H   0  0  0  0  0  0  0  0  0  0  0  0
   24.7195   18.6317   23.8129 H   0  0  0  0  0  0  0  0  0  0  0  0
   24.3093   19.5863   25.2555 H   0  0  0  0  0  0  0  0  0  0  0  0
   15.7286   18.5998   22.3727 C   0  0  0  0  0  0  0  0  0  0  0  0
   15.9073   18.6393   21.2959 H   0  0  0  0  0  0  0  0  0  0  0  0
   14.8975   17.9232   22.5841 H   0  0  0  0  0  0  0  0  0  0  0  0
   15.4948   19.5992   22.7461 H   0  0  0  0  0  0  0  0  0  0  0  0
  1  2  1  0  0  0  0
  1  3  1  0  0  0  0
  1  4  1  0  0  0  0
  4  5  1  0  0  0  0
  4  6  1  0  0  0  0
  4  7  1  0  0  0  0
  7  8  1  0  0  0  0
  7  9  1  0  0  0  0
  7 10  1  0  0  0  0
 10 11  1  0  0  0  0
 10 12  1  0  0  0  0
 10 13  1  0  0  0  0
 13 14  1  0  0  0  0
 13 15  1  0  0  0  0
 13 16  1  0  0  0  0
 16 17  1  0  0  0  0
 16 18  1  0  0  0  0
 16 19  1  0  0  0  0
 19 20  1  0  0  0  0
 19 21  1  0  0  0  0
 19 22  1  0  0  0  0
  1 23  1  0  0  0  0
 23 24  1  0  0  0  0
 23 25  1  0  0  0  0
 23 26  1  0  0  0  0
M  END
> <VConfSearch Rank>
161

> <Conf_Id>
11

> <Delta U+W>
0.000

> <U+W>
21.842

> <U>
70.357

> <W>
-48.515

> <W(PB)>
-50.856

> <W(SA)>
2.341

> <Valence>
1.714

> <Coulomb>
68.480

> <VdW>
0.163

> <VdW6>
-5.268

> <VdW12>
5.431

> <Bond>
0.126

> <Angle>
0.350

> <Pdih>
1.238

> <Idih>
0.000

> <Tether>
0.000

$$$$
VeraChem MOL file


 26 25  0  0  0  0  0  0  0  0999 V2000     
   21.4941   21.0261   25.5648 N   0  3  0  0  0  0  0  0  0  0  0  0
   21.4466   21.1974   26.5818 H   0  0  0  0  0  0  0  0  0  0  0  0
   21.1728   21.9057   25.1317 H   0  0  0  0  0  0  0  0  0  0  0  0
   20.5580   19.8869   25.1970 C   0  0  0  0  0  0  0  0  0  0  0  0
   19.5914   20.0985   25.6612 H   0  0  0  0  0  0  0  0  0  0  0  0
   20.9535   18.9697   25.6406 H   0  0  0  0  0  0  0  0  0  0  0  0
   20.3533   19.6904   23.6810 C   0  0  0  0  0  0  0  0  0  0  0  0
   20.0033   20.6313   23.2360 H   0  0  0  0  0  0  0  0  0  0  0  0
   21.3119   19.4461   23.2055 H   0  0  0  0  0  0  0  0  0  0  0  0
   19.3334   18.5670   23.3911 C   0  0  0  0  0  0  0  0  0  0  0  0
   18.3742   18.8108   23.8689 H   0  0  0  0  0  0  0  0  0  0  0  0
   19.6841   17.6288   23.8435 H   0  0  0  0  0  0  0  0  0  0  0  0
   19.1178   18.3605   21.8744 C   0  0  0  0  0  0  0  0  0  0  0  0
   18.7674   19.2986   21.4219 H   0  0  0  0  0  0  0  0  0  0  0  0
   20.0767   18.1164   21.3966 H   0  0  0  0  0  0  0  0  0  0  0  0
   18.0977   17.2368   21.5848 C   0  0  0  0  0  0  0  0  0  0  0  0
   17.1357   17.4775   22.0587 H   0  0  0  0  0  0  0  0  0  0  0  0
   18.4449   16.2955   22.0335 H   0  0  0  0  0  0  0  0  0  0  0  0
   17.8850   17.0335   20.0694 C   0  0  0  0  0  0  0  0  0  0  0  0
   17.1580   16.2322   19.8840 H   0  0  0  0  0  0  0  0  0  0  0  0
   18.8241   16.7577   19.5723 H   0  0  0  0  0  0  0  0  0  0  0  0
   17.5045   17.9489   19.5977 H   0  0  0  0  0  0  0  0  0  0  0  0
   22.9302   20.7144   25.1591 C   0  0  0  0  0  0  0  0  0  0  0  0
   22.9831   20.5991   24.0747 H   0  0  0  0  0  0  0  0  0  0  0  0
   23.5764   21.5375   25.4723 H   0  0  0  0  0  0  0  0  0  0  0  0
   23.2482   19.7902   25.6464 H   0  0  0  0  0  0  0  0  0  0  0  0
  1  2  1  0  0  0  0
  1  3  1  0  0  0  0
  1  4  1  0  0  0  0
  4  5  1  0  0  0  0
  4  6  1  0  0  0  0
  4  7  1  0  0  0  0
  7  8  1  0  0  0  0
  7  9  1  0  0  0  0
  7 10  1  0  0  0  0
 10 11  1  0  0  0  0
 10 12  1  0  0  0  0
 10 13  1  0  0  0  0
 13 14  1  0  0  0  0
 13 15  1  0  0  0  0
 13 16  1  0  0  0  0
 16 17  1  0  0  0  0
 16 18  1  0  0  0  0
 16 19  1  0  0  0  0
 19 20  1  0  0  0  0
 19 21  1  0  0  0  0
 19 22  1  0  0  0  0
  1 23  1  0  0  0  0
 23 24  1  0  0  0  0
 23 25  1  0  0  0  0
 23 26  1  0  0  0  0
M  END
> <VConfSearch Rank>
162

> <Conf_Id>
102

> <Delta U+W>
0.121

> <U+W>
21.963

> <U>
70.745

> <W>
-48.782

> <W(PB)>
-51.111

> <W(SA)>
2.329

> <Valence>
1.993

> <Coulomb>
68.323

> <VdW>
0.429

> <VdW6>
-5.973

> <VdW12>
6.402

> <Bond>
0.161

> <Angle>
0.472

> <Pdih>
1.360

> <Idih>
0.000

> <Tether>
0.000

$$$$
VeraChem MOL file


 26 25  0  0  0  0  0  0  0  0999 V2000     
   17.8250   16.6793   22.5145 N   0  3  0  0  0  0  0  0  0  0  0  0
   18.5199   16.0274   22.1187 H   0  0  0  0  0  0  0  0  0  0  0  0
   16.9898   16.5730   21.9168 H   0  0  0  0  0  0  0  0  0  0  0  0
   18.3348   18.1081   22.4259 C   0  0  0  0  0  0  0  0  0  0  0  0
   17.5904   18.7604   22.8893 H   0  0  0  0  0  0  0  0  0  0  0  0
   18.3975   18.3650   21.3654 H   0  0  0  0  0  0  0  0  0  0  0  0
   19.7129   18.3379   23.0792 C   0  0  0  0  0  0  0  0  0  0  0  0
   19.6571   18.1134   24.1522 H   0  0  0  0  0  0  0  0  0  0  0  0
   20.4431   17.6439   22.6423 H   0  0  0  0  0  0  0  0  0  0  0  0
   20.1947   19.7922   22.8816 C   0  0  0  0  0  0  0  0  0  0  0  0
   19.4581   20.4836   23.3142 H   0  0  0  0  0  0  0  0  0  0  0  0
   20.2487   20.0174   21.8072 H   0  0  0  0  0  0  0  0  0  0  0  0
   21.5762   20.0358   23.5309 C   0  0  0  0  0  0  0  0  0  0  0  0
   21.5222   19.8111   24.6052 H   0  0  0  0  0  0  0  0  0  0  0  0
   22.3127   19.3443   23.0985 H   0  0  0  0  0  0  0  0  0  0  0  0
   22.0578   21.4905   23.3330 C   0  0  0  0  0  0  0  0  0  0  0  0
   21.3253   22.1862   23.7659 H   0  0  0  0  0  0  0  0  0  0  0  0
   22.1160   21.7195   22.2596 H   0  0  0  0  0  0  0  0  0  0  0  0
   23.4374   21.7300   23.9829 C   0  0  0  0  0  0  0  0  0  0  0  0
   23.4026   21.5422   25.0639 H   0  0  0  0  0  0  0  0  0  0  0  0
   23.7622   22.7677   23.8318 H   0  0  0  0  0  0  0  0  0  0  0  0
   24.1995   21.0717   23.5459 H   0  0  0  0  0  0  0  0  0  0  0  0
   17.4841   16.3020   23.9517 C   0  0  0  0  0  0  0  0  0  0  0  0
   16.7343   16.9966   24.3368 H   0  0  0  0  0  0  0  0  0  0  0  0
   17.0874   15.2845   23.9693 H   0  0  0  0  0  0  0  0  0  0  0  0
   18.3869   16.3542   24.5635 H   0  0  0  0  0  0  0  0  0  0  0  0
  1  2  1  0  0  0  0
  1  3  1  0  0  0  0
  1  4  1  0  0  0  0
  4  5  1  0  0  0  0
  4  6  1  0  0  0  0
  4  7  1  0  0  0  0
  7  8  1  0  0  0  0
  7  9  1  0  0  0  0
  7 10  1  0  0  0  0
 10 11  1  0  0  0  0
 10 12  1  0  0  0  0
 10 13  1  0  0  0  0
 13 14  1  0  0  0  0
 13 15  1  0  0  0  0
 13 16  1  0  0  0  0
 16 17  1  0  0  0  0
 16 18  1  0  0  0  0
 16 19  1  0  0  0  0
 19 20  1  0  0  0  0
 19 21  1  0  0  0  0
 19 22  1  0  0  0  0
  1 23  1  0  0  0  0
 23 24  1  0  0  0  0
 23 25  1  0  0  0  0
 23 26  1  0  0  0  0
M  END
> <VConfSearch Rank>
163

> <Conf_Id>
37

> <Delta U+W>
0.125

> <U+W>
21.967

> <U>
70.745

> <W>
-48.778

> <W(PB)>
-51.115

> <W(SA)>
2.337

> <Valence>
1.993

> <Coulomb>
68.323

> <VdW>
0.429

> <VdW6>
-5.973

> <VdW12>
6.403

> <Bond>
0.161

> <Angle>
0.472

> <Pdih>
1.360

> <Idih>
0.000

> <Tether>
0.000

$$$$
VeraChem MOL file


 26 25  0  0  0  0  0  0  0  0999 V2000     
   21.6272   21.5737   22.5509 N   0  3  0  0  0  0  0  0  0  0  0  0
   21.4883   21.8141   21.5570 H   0  0  0  0  0  0  0  0  0  0  0  0
   22.5614   21.1381   22.5998 H   0  0  0  0  0  0  0  0  0  0  0  0
   20.5671   20.5903   23.0042 C   0  0  0  0  0  0  0  0  0  0  0  0
   19.5958   21.0852   22.9272 H   0  0  0  0  0  0  0  0  0  0  0  0
   20.7549   20.3607   24.0556 H   0  0  0  0  0  0  0  0  0  0  0  0
   20.5521   19.2886   22.1797 C   0  0  0  0  0  0  0  0  0  0  0  0
   20.4098   19.5383   21.1198 H   0  0  0  0  0  0  0  0  0  0  0  0
   21.5278   18.7905   22.2569 H   0  0  0  0  0  0  0  0  0  0  0  0
   19.4343   18.3131   22.6186 C   0  0  0  0  0  0  0  0  0  0  0  0
   19.4192   17.4698   21.9161 H   0  0  0  0  0  0  0  0  0  0  0  0
   18.4584   18.8103   22.5295 H   0  0  0  0  0  0  0  0  0  0  0  0
   19.6219   17.7833   24.0633 C   0  0  0  0  0  0  0  0  0  0  0  0
   20.5890   17.2683   24.1465 H   0  0  0  0  0  0  0  0  0  0  0  0
   19.6612   18.6287   24.7627 H   0  0  0  0  0  0  0  0  0  0  0  0
   18.4901   16.8320   24.5225 C   0  0  0  0  0  0  0  0  0  0  0  0
   17.5211   17.3457   24.4523 H   0  0  0  0  0  0  0  0  0  0  0  0
   18.6369   16.5985   25.5864 H   0  0  0  0  0  0  0  0  0  0  0  0
   18.4360   15.5077   23.7269 C   0  0  0  0  0  0  0  0  0  0  0  0
   18.1657   15.6772   22.6775 H   0  0  0  0  0  0  0  0  0  0  0  0
   17.6833   14.8331   24.1553 H   0  0  0  0  0  0  0  0  0  0  0  0
   19.4037   14.9903   23.7543 H   0  0  0  0  0  0  0  0  0  0  0  0
   21.5758   22.8258   23.4154 C   0  0  0  0  0  0  0  0  0  0  0  0
   21.7584   22.5512   24.4566 H   0  0  0  0  0  0  0  0  0  0  0  0
   22.3439   23.5256   23.0783 H   0  0  0  0  0  0  0  0  0  0  0  0
   20.5901   23.2868   23.3215 H   0  0  0  0  0  0  0  0  0  0  0  0
  1  2  1  0  0  0  0
  1  3  1  0  0  0  0
  1  4  1  0  0  0  0
  4  5  1  0  0  0  0
  4  6  1  0  0  0  0
  4  7  1  0  0  0  0
  7  8  1  0  0  0  0
  7  9  1  0  0  0  0
  7 10  1  0  0  0  0
 10 11  1  0  0  0  0
 10 12  1  0  0  0  0
 10 13  1  0  0  0  0
 13 14  1  0  0  0  0
 13 15  1  0  0  0  0
 13 16  1  0  0  0  0
 16 17  1  0  0  0  0
 16 18  1  0  0  0  0
 16 19  1  0  0  0  0
 19 20  1  0  0  0  0
 19 21  1  0  0  0  0
 19 22  1  0  0  0  0
  1 23  1  0  0  0  0
 23 24  1  0  0  0  0
 23 25  1  0  0  0  0
 23 26  1  0  0  0  0
M  END
> <VConfSearch Rank>
164

> <Conf_Id>
137

> <Delta U+W>
1.038

> <U+W>
22.880

> <U>
71.810

> <W>
-48.930

> <W(PB)>
-51.257

> <W(SA)>
2.327

> <Valence>
2.568

> <Coulomb>
68.877

> <VdW>
0.364

> <VdW6>
-6.470

> <VdW12>
6.834

> <Bond>
0.191

> <Angle>
0.752

> <Pdih>
1.626

> <Idih>
0.000

> <Tether>
0.000

$$$$
VeraChem MOL file


 26 25  0  0  0  0  0  0  0  0999 V2000     
   22.2851   19.2879   25.2762 N   0  3  0  0  0  0  0  0  0  0  0  0
   21.8361   18.5097   25.7837 H   0  0  0  0  0  0  0  0  0  0  0  0
   21.9257   20.1480   25.7188 H   0  0  0  0  0  0  0  0  0  0  0  0
   21.8960   19.2514   23.8119 C   0  0  0  0  0  0  0  0  0  0  0  0
   22.2871   18.3249   23.3840 H   0  0  0  0  0  0  0  0  0  0  0  0
   22.3841   20.0933   23.3144 H   0  0  0  0  0  0  0  0  0  0  0  0
   20.3753   19.3258   23.5838 C   0  0  0  0  0  0  0  0  0  0  0  0
   19.8952   18.4870   24.1032 H   0  0  0  0  0  0  0  0  0  0  0  0
   19.9846   20.2502   24.0294 H   0  0  0  0  0  0  0  0  0  0  0  0
   20.0300   19.2877   22.0763 C   0  0  0  0  0  0  0  0  0  0  0  0
   20.3776   18.3408   21.6402 H   0  0  0  0  0  0  0  0  0  0  0  0
   20.5856   20.0850   21.5631 H   0  0  0  0  0  0  0  0  0  0  0  0
   18.5210   19.4724   21.7804 C   0  0  0  0  0  0  0  0  0  0  0  0
   18.1772   20.4276   22.2010 H   0  0  0  0  0  0  0  0  0  0  0  0
   18.3868   19.5495   20.6925 H   0  0  0  0  0  0  0  0  0  0  0  0
   17.6385   18.3193   22.3148 C   0  0  0  0  0  0  0  0  0  0  0  0
   17.6956   18.2738   23.4104 H   0  0  0  0  0  0  0  0  0  0  0  0
   18.0137   17.3583   21.9358 H   0  0  0  0  0  0  0  0  0  0  0  0
   16.1623   18.4919   21.8979 C   0  0  0  0  0  0  0  0  0  0  0  0
   15.7493   19.4313   22.2879 H   0  0  0  0  0  0  0  0  0  0  0  0
   15.5505   17.6678   22.2873 H   0  0  0  0  0  0  0  0  0  0  0  0
   16.0584   18.5005   20.8050 H   0  0  0  0  0  0  0  0  0  0  0  0
   23.7996   19.2105   25.4118 C   0  0  0  0  0  0  0  0  0  0  0  0
   24.2503   20.0611   24.8959 H   0  0  0  0  0  0  0  0  0  0  0  0
   24.0663   19.2377   26.4707 H   0  0  0  0  0  0  0  0  0  0  0  0
   24.1528   18.2779   24.9664 H   0  0  0  0  0  0  0  0  0  0  0  0
  1  2  1  0  0  0  0
  1  3  1  0  0  0  0
  1  4  1  0  0  0  0
  4  5  1  0  0  0  0
  4  6  1  0  0  0  0
  4  7  1  0  0  0  0
  7  8  1  0  0  0  0
  7  9  1  0  0  0  0
  7 10  1  0  0  0  0
 10 11  1  0  0  0  0
 10 12  1  0  0  0  0
 10 13  1  0  0  0  0
 13 14  1  0  0  0  0
 13 15  1  0  0  0  0
 13 16  1  0  0  0  0
 16 17  1  0  0  0  0
 16 18  1  0  0  0  0
 16 19  1  0  0  0  0
 19 20  1  0  0  0  0
 19 21  1  0  0  0  0
 19 22  1  0  0  0  0
  1 23  1  0  0  0  0
 23 24  1  0  0  0  0
 23 25  1  0  0  0  0
 23 26  1  0  0  0  0
M  END
> <VConfSearch Rank>
165

> <Conf_Id>
35

> <Delta U+W>
0.670

> <U+W>
22.512

> <U>
71.348

> <W>
-48.837

> <W(PB)>
-51.150

> <W(SA)>
2.313

> <Valence>
2.262

> <Coulomb>
68.807

> <VdW>
0.280

> <VdW6>
-5.915

> <VdW12>
6.195

> <Bond>
0.164

> <Angle>
0.622

> <Pdih>
1.475

> <Idih>
0.000

> <Tether>
0.000

$$$$
VeraChem MOL file


 26 25  0  0  0  0  0  0  0  0999 V2000     
   19.8754   21.6958   24.6571 N   0  3  0  0  0  0  0  0  0  0  0  0
   19.7329   21.3042   25.6011 H   0  0  0  0  0  0  0  0  0  0  0  0
   18.9303   21.7912   24.2539 H   0  0  0  0  0  0  0  0  0  0  0  0
   20.7090   20.7481   23.8181 C   0  0  0  0  0  0  0  0  0  0  0  0
   21.6954   20.6691   24.2821 H   0  0  0  0  0  0  0  0  0  0  0  0
   20.8292   21.1944   22.8277 H   0  0  0  0  0  0  0  0  0  0  0  0
   20.0865   19.3466   23.6825 C   0  0  0  0  0  0  0  0  0  0  0  0
   19.9527   18.9090   24.6808 H   0  0  0  0  0  0  0  0  0  0  0  0
   19.0899   19.4408   23.2333 H   0  0  0  0  0  0  0  0  0  0  0  0
   20.9743   18.4175   22.8212 C   0  0  0  0  0  0  0  0  0  0  0  0
   21.9891   18.4031   23.2426 H   0  0  0  0  0  0  0  0  0  0  0  0
   21.0682   18.8303   21.8070 H   0  0  0  0  0  0  0  0  0  0  0  0
   20.4547   16.9606   22.7426 C   0  0  0  0  0  0  0  0  0  0  0  0
   21.2024   16.3527   22.2145 H   0  0  0  0  0  0  0  0  0  0  0  0
   20.3777   16.5417   23.7555 H   0  0  0  0  0  0  0  0  0  0  0  0
   19.0946   16.8255   22.0173 C   0  0  0  0  0  0  0  0  0  0  0  0
   19.1560   17.2906   21.0235 H   0  0  0  0  0  0  0  0  0  0  0  0
   18.3134   17.3616   22.5723 H   0  0  0  0  0  0  0  0  0  0  0  0
   18.6750   15.3477   21.8649 C   0  0  0  0  0  0  0  0  0  0  0  0
   19.4131   14.7856   21.2781 H   0  0  0  0  0  0  0  0  0  0  0  0
   17.7078   15.2703   21.3516 H   0  0  0  0  0  0  0  0  0  0  0  0
   18.5760   14.8625   22.8447 H   0  0  0  0  0  0  0  0  0  0  0  0
   20.5600   23.0532   24.7399 C   0  0  0  0  0  0  0  0  0  0  0  0
   20.6698   23.4620   23.7331 H   0  0  0  0  0  0  0  0  0  0  0  0
   19.9497   23.7258   25.3467 H   0  0  0  0  0  0  0  0  0  0  0  0
   21.5434   22.9320   25.1995 H   0  0  0  0  0  0  0  0  0  0  0  0
  1  2  1  0  0  0  0
  1  3  1  0  0  0  0
  1  4  1  0  0  0  0
  4  5  1  0  0  0  0
  4  6  1  0  0  0  0
  4  7  1  0  0  0  0
  7  8  1  0  0  0  0
  7  9  1  0  0  0  0
  7 10  1  0  0  0  0
 10 11  1  0  0  0  0
 10 12  1  0  0  0  0
 10 13  1  0  0  0  0
 13 14  1  0  0  0  0
 13 15  1  0  0  0  0
 13 16  1  0  0  0  0
 16 17  1  0  0  0  0
 16 18  1  0  0  0  0
 16 19  1  0  0  0  0
 19 20  1  0  0  0  0
 19 21  1  0  0  0  0
 19 22  1  0  0  0  0
  1 23  1  0  0  0  0
 23 24  1  0  0  0  0
 23 25  1  0  0  0  0
 23 26  1  0  0  0  0
M  END
> <VConfSearch Rank>
166

> <Conf_Id>
36

> <Delta U+W>
0.662

> <U+W>
22.504

> <U>
71.348

> <W>
-48.844

> <W(PB)>
-51.157

> <W(SA)>
2.313

> <Valence>
2.262

> <Coulomb>
68.807

> <VdW>
0.280

> <VdW6>
-5.916

> <VdW12>
6.195

> <Bond>
0.164

> <Angle>
0.622

> <Pdih>
1.475

> <Idih>
0.000

> <Tether>
0.000

$$$$
VeraChem MOL file


 26 25  0  0  0  0  0  0  0  0999 V2000     
   17.1565   19.5539   23.0799 N   0  3  0  0  0  0  0  0  0  0  0  0
   16.8901   18.5608   22.9929 H   0  0  0  0  0  0  0  0  0  0  0  0
   16.8116   20.0069   22.2193 H   0  0  0  0  0  0  0  0  0  0  0  0
   18.6634   19.6850   23.1720 C   0  0  0  0  0  0  0  0  0  0  0  0
   18.9848   19.1892   24.0910 H   0  0  0  0  0  0  0  0  0  0  0  0
   18.9033   20.7482   23.2515 H   0  0  0  0  0  0  0  0  0  0  0  0
   19.4024   19.0760   21.9648 C   0  0  0  0  0  0  0  0  0  0  0  0
   19.1600   18.0079   21.8839 H   0  0  0  0  0  0  0  0  0  0  0  0
   19.0388   19.5516   21.0442 H   0  0  0  0  0  0  0  0  0  0  0  0
   20.9366   19.2558   22.0505 C   0  0  0  0  0  0  0  0  0  0  0  0
   21.1775   20.3267   22.1036 H   0  0  0  0  0  0  0  0  0  0  0  0
   21.3873   18.8823   21.1206 H   0  0  0  0  0  0  0  0  0  0  0  0
   21.5692   18.5177   23.2550 C   0  0  0  0  0  0  0  0  0  0  0  0
   21.1636   18.9157   24.1947 H   0  0  0  0  0  0  0  0  0  0  0  0
   21.2985   17.4534   23.2170 H   0  0  0  0  0  0  0  0  0  0  0  0
   23.1080   18.6561   23.2693 C   0  0  0  0  0  0  0  0  0  0  0  0
   23.3845   19.7192   23.3065 H   0  0  0  0  0  0  0  0  0  0  0  0
   23.5261   18.2526   22.3364 H   0  0  0  0  0  0  0  0  0  0  0  0
   23.7377   17.9210   24.4719 C   0  0  0  0  0  0  0  0  0  0  0  0
   23.3653   18.3263   25.4217 H   0  0  0  0  0  0  0  0  0  0  0  0
   24.8299   18.0303   24.4644 H   0  0  0  0  0  0  0  0  0  0  0  0
   23.5066   16.8481   24.4440 H   0  0  0  0  0  0  0  0  0  0  0  0
   16.5065   20.1757   24.3082 C   0  0  0  0  0  0  0  0  0  0  0  0
   16.7757   21.2329   24.3606 H   0  0  0  0  0  0  0  0  0  0  0  0
   15.4217   20.0748   24.2291 H   0  0  0  0  0  0  0  0  0  0  0  0
   16.8608   19.6586   25.2027 H   0  0  0  0  0  0  0  0  0  0  0  0
  1  2  1  0  0  0  0
  1  3  1  0  0  0  0
  1  4  1  0  0  0  0
  4  5  1  0  0  0  0
  4  6  1  0  0  0  0
  4  7  1  0  0  0  0
  7  8  1  0  0  0  0
  7  9  1  0  0  0  0
  7 10  1  0  0  0  0
 10 11  1  0  0  0  0
 10 12  1  0  0  0  0
 10 13  1  0  0  0  0
 13 14  1  0  0  0  0
 13 15  1  0  0  0  0
 13 16  1  0  0  0  0
 16 17  1  0  0  0  0
 16 18  1  0  0  0  0
 16 19  1  0  0  0  0
 19 20  1  0  0  0  0
 19 21  1  0  0  0  0
 19 22  1  0  0  0  0
  1 23  1  0  0  0  0
 23 24  1  0  0  0  0
 23 25  1  0  0  0  0
 23 26  1  0  0  0  0
M  END
> <VConfSearch Rank>
167

> <Conf_Id>
46

> <Delta U+W>
0.496

> <U+W>
22.338

> <U>
71.138

> <W>
-48.799

> <W(PB)>
-51.136

> <W(SA)>
2.337

> <Valence>
2.016

> <Coulomb>
68.932

> <VdW>
0.190

> <VdW6>
-5.902

> <VdW12>
6.092

> <Bond>
0.149

> <Angle>
0.477

> <Pdih>
1.390

> <Idih>
0.000

> <Tether>
0.000

$$$$
VeraChem MOL file


 26 25  0  0  0  0  0  0  0  0999 V2000     
   18.6947   21.5643   22.1097 N   0  3  0  0  0  0  0  0  0  0  0  0
   17.8087   21.4383   21.5960 H   0  0  0  0  0  0  0  0  0  0  0  0
   19.4100   21.7339   21.3856 H   0  0  0  0  0  0  0  0  0  0  0  0
   19.0289   20.3098   22.8914 C   0  0  0  0  0  0  0  0  0  0  0  0
   18.2444   20.1606   23.6376 H   0  0  0  0  0  0  0  0  0  0  0  0
   19.9726   20.4847   23.4134 H   0  0  0  0  0  0  0  0  0  0  0  0
   19.1473   19.0542   22.0060 C   0  0  0  0  0  0  0  0  0  0  0  0
   18.2084   18.9147   21.4538 H   0  0  0  0  0  0  0  0  0  0  0  0
   19.9344   19.2047   21.2551 H   0  0  0  0  0  0  0  0  0  0  0  0
   19.4450   17.7738   22.8216 C   0  0  0  0  0  0  0  0  0  0  0  0
   19.4251   16.9107   22.1419 H   0  0  0  0  0  0  0  0  0  0  0  0
   18.6417   17.6108   23.5536 H   0  0  0  0  0  0  0  0  0  0  0  0
   20.8116   17.8188   23.5471 C   0  0  0  0  0  0  0  0  0  0  0  0
   21.6088   18.0152   22.8169 H   0  0  0  0  0  0  0  0  0  0  0  0
   20.8278   18.6482   24.2667 H   0  0  0  0  0  0  0  0  0  0  0  0
   21.1104   16.4979   24.2909 C   0  0  0  0  0  0  0  0  0  0  0  0
   21.1053   15.6610   23.5786 H   0  0  0  0  0  0  0  0  0  0  0  0
   20.3153   16.2960   25.0224 H   0  0  0  0  0  0  0  0  0  0  0  0
   22.4727   16.5445   25.0154 C   0  0  0  0  0  0  0  0  0  0  0  0
   23.2925   16.7116   24.3047 H   0  0  0  0  0  0  0  0  0  0  0  0
   22.6670   15.5982   25.5369 H   0  0  0  0  0  0  0  0  0  0  0  0
   22.4966   17.3504   25.7605 H   0  0  0  0  0  0  0  0  0  0  0  0
   18.5994   22.7537   23.0552 C   0  0  0  0  0  0  0  0  0  0  0  0
   18.3582   23.6503   22.4798 H   0  0  0  0  0  0  0  0  0  0  0  0
   17.8146   22.5655   23.7911 H   0  0  0  0  0  0  0  0  0  0  0  0
   19.5577   22.8874   23.5620 H   0  0  0  0  0  0  0  0  0  0  0  0
  1  2  1  0  0  0  0
  1  3  1  0  0  0  0
  1  4  1  0  0  0  0
  4  5  1  0  0  0  0
  4  6  1  0  0  0  0
  4  7  1  0  0  0  0
  7  8  1  0  0  0  0
  7  9  1  0  0  0  0
  7 10  1  0  0  0  0
 10 11  1  0  0  0  0
 10 12  1  0  0  0  0
 10 13  1  0  0  0  0
 13 14  1  0  0  0  0
 13 15  1  0  0  0  0
 13 16  1  0  0  0  0
 16 17  1  0  0  0  0
 16 18  1  0  0  0  0
 16 19  1  0  0  0  0
 19 20  1  0  0  0  0
 19 21  1  0  0  0  0
 19 22  1  0  0  0  0
  1 23  1  0  0  0  0
 23 24  1  0  0  0  0
 23 25  1  0  0  0  0
 23 26  1  0  0  0  0
M  END
> <VConfSearch Rank>
168

> <Conf_Id>
45

> <Delta U+W>
0.471

> <U+W>
22.313

> <U>
71.138

> <W>
-48.825

> <W(PB)>
-51.169

> <W(SA)>
2.344

> <Valence>
2.016

> <Coulomb>
68.932

> <VdW>
0.190

> <VdW6>
-5.902

> <VdW12>
6.092

> <Bond>
0.149

> <Angle>
0.477

> <Pdih>
1.390

> <Idih>
0.000

> <Tether>
0.000

$$$$
VeraChem MOL file


 26 25  0  0  0  0  0  0  0  0999 V2000     
   18.1866   17.3157   23.1625 N   0  3  0  0  0  0  0  0  0  0  0  0
   18.5864   17.2932   24.1127 H   0  0  0  0  0  0  0  0  0  0  0  0
   18.8340   16.7659   22.5767 H   0  0  0  0  0  0  0  0  0  0  0  0
   18.1157   18.7453   22.6615 C   0  0  0  0  0  0  0  0  0  0  0  0
   17.4302   19.2964   23.3102 H   0  0  0  0  0  0  0  0  0  0  0  0
   17.6887   18.7216   21.6556 H   0  0  0  0  0  0  0  0  0  0  0  0
   19.4800   19.4613   22.6211 C   0  0  0  0  0  0  0  0  0  0  0  0
   20.1596   18.9014   21.9663 H   0  0  0  0  0  0  0  0  0  0  0  0
   19.3404   20.4482   22.1603 H   0  0  0  0  0  0  0  0  0  0  0  0
   20.1025   19.6354   24.0292 C   0  0  0  0  0  0  0  0  0  0  0  0
   20.3309   18.6537   24.4654 H   0  0  0  0  0  0  0  0  0  0  0  0
   19.3609   20.1035   24.6915 H   0  0  0  0  0  0  0  0  0  0  0  0
   21.3831   20.5061   24.0340 C   0  0  0  0  0  0  0  0  0  0  0  0
   21.1558   21.4986   23.6210 H   0  0  0  0  0  0  0  0  0  0  0  0
   21.6891   20.6698   25.0766 H   0  0  0  0  0  0  0  0  0  0  0  0
   22.5631   19.8754   23.2569 C   0  0  0  0  0  0  0  0  0  0  0  0
   22.3060   19.7727   22.1943 H   0  0  0  0  0  0  0  0  0  0  0  0
   22.7591   18.8630   23.6367 H   0  0  0  0  0  0  0  0  0  0  0  0
   23.8458   20.7252   23.3814 C   0  0  0  0  0  0  0  0  0  0  0  0
   23.6902   21.7357   22.9816 H   0  0  0  0  0  0  0  0  0  0  0  0
   24.6713   20.2654   22.8225 H   0  0  0  0  0  0  0  0  0  0  0  0
   24.1593   20.8168   24.4295 H   0  0  0  0  0  0  0  0  0  0  0  0
   16.7973   16.6935   23.1532 C   0  0  0  0  0  0  0  0  0  0  0  0
   16.4078   16.7000   22.1328 H   0  0  0  0  0  0  0  0  0  0  0  0
   16.8627   15.6654   23.5164 H   0  0  0  0  0  0  0  0  0  0  0  0
   16.1395   17.2736   23.8041 H   0  0  0  0  0  0  0  0  0  0  0  0
  1  2  1  0  0  0  0
  1  3  1  0  0  0  0
  1  4  1  0  0  0  0
  4  5  1  0  0  0  0
  4  6  1  0  0  0  0
  4  7  1  0  0  0  0
  7  8  1  0  0  0  0
  7  9  1  0  0  0  0
  7 10  1  0  0  0  0
 10 11  1  0  0  0  0
 10 12  1  0  0  0  0
 10 13  1  0  0  0  0
 13 14  1  0  0  0  0
 13 15  1  0  0  0  0
 13 16  1  0  0  0  0
 16 17  1  0  0  0  0
 16 18  1  0  0  0  0
 16 19  1  0  0  0  0
 19 20  1  0  0  0  0
 19 21  1  0  0  0  0
 19 22  1  0  0  0  0
  1 23  1  0  0  0  0
 23 24  1  0  0  0  0
 23 25  1  0  0  0  0
 23 26  1  0  0  0  0
M  END
> <VConfSearch Rank>
169

> <Conf_Id>
143

> <Delta U+W>
0.915

> <U+W>
22.757

> <U>
71.994

> <W>
-49.237

> <W(PB)>
-51.537

> <W(SA)>
2.300

> <Valence>
2.376

> <Coulomb>
69.315

> <VdW>
0.303

> <VdW6>
-6.508

> <VdW12>
6.810

> <Bond>
0.182

> <Angle>
0.660

> <Pdih>
1.534

> <Idih>
0.000

> <Tether>
0.000

$$$$
VeraChem MOL file


 26 25  0  0  0  0  0  0  0  0999 V2000     
   20.5864   21.5566   23.7556 N   0  3  0  0  0  0  0  0  0  0  0  0
   20.1376   21.3131   24.6513 H   0  0  0  0  0  0  0  0  0  0  0  0
   19.8234   21.8888   23.1455 H   0  0  0  0  0  0  0  0  0  0  0  0
   21.2422   20.3305   23.1500 C   0  0  0  0  0  0  0  0  0  0  0  0
   22.0357   20.0024   23.8262 H   0  0  0  0  0  0  0  0  0  0  0  0
   21.7027   20.6369   22.2073 H   0  0  0  0  0  0  0  0  0  0  0  0
   20.2697   19.1638   22.8862 C   0  0  0  0  0  0  0  0  0  0  0  0
   19.4570   19.5039   22.2308 H   0  0  0  0  0  0  0  0  0  0  0  0
   20.8189   18.3879   22.3389 H   0  0  0  0  0  0  0  0  0  0  0  0
   19.6897   18.5615   24.1892 C   0  0  0  0  0  0  0  0  0  0  0  0
   19.2311   19.3588   24.7887 H   0  0  0  0  0  0  0  0  0  0  0  0
   20.5091   18.1549   24.7981 H   0  0  0  0  0  0  0  0  0  0  0  0
   18.6208   17.4606   23.9644 C   0  0  0  0  0  0  0  0  0  0  0  0
   18.2577   17.1466   24.9529 H   0  0  0  0  0  0  0  0  0  0  0  0
   17.7464   17.8824   23.4498 H   0  0  0  0  0  0  0  0  0  0  0  0
   19.1279   16.2010   23.2154 C   0  0  0  0  0  0  0  0  0  0  0  0
   18.6252   15.3183   23.6351 H   0  0  0  0  0  0  0  0  0  0  0  0
   20.2010   16.0523   23.3997 H   0  0  0  0  0  0  0  0  0  0  0  0
   18.8420   16.2333   21.6956 C   0  0  0  0  0  0  0  0  0  0  0  0
   19.3306   17.0798   21.2008 H   0  0  0  0  0  0  0  0  0  0  0  0
   17.7640   16.3059   21.5014 H   0  0  0  0  0  0  0  0  0  0  0  0
   19.2045   15.3143   21.2171 H   0  0  0  0  0  0  0  0  0  0  0  0
   21.6238   22.6520   23.9593 C   0  0  0  0  0  0  0  0  0  0  0  0
   22.0620   22.9155   22.9941 H   0  0  0  0  0  0  0  0  0  0  0  0
   21.1388   23.5281   24.3956 H   0  0  0  0  0  0  0  0  0  0  0  0
   22.4030   22.2880   24.6325 H   0  0  0  0  0  0  0  0  0  0  0  0
  1  2  1  0  0  0  0
  1  3  1  0  0  0  0
  1  4  1  0  0  0  0
  4  5  1  0  0  0  0
  4  6  1  0  0  0  0
  4  7  1  0  0  0  0
  7  8  1  0  0  0  0
  7  9  1  0  0  0  0
  7 10  1  0  0  0  0
 10 11  1  0  0  0  0
 10 12  1  0  0  0  0
 10 13  1  0  0  0  0
 13 14  1  0  0  0  0
 13 15  1  0  0  0  0
 13 16  1  0  0  0  0
 16 17  1  0  0  0  0
 16 18  1  0  0  0  0
 16 19  1  0  0  0  0
 19 20  1  0  0  0  0
 19 21  1  0  0  0  0
 19 22  1  0  0  0  0
  1 23  1  0  0  0  0
 23 24  1  0  0  0  0
 23 25  1  0  0  0  0
 23 26  1  0  0  0  0
M  END
> <VConfSearch Rank>
170

> <Conf_Id>
76

> <Delta U+W>
3.468

> <U+W>
25.310

> <U>
74.594

> <W>
-49.283

> <W(PB)>
-51.537

> <W(SA)>
2.253

> <Valence>
4.886

> <Coulomb>
69.332

> <VdW>
0.376

> <VdW6>
-7.329

> <VdW12>
7.705

> <Bond>
0.232

> <Angle>
1.251

> <Pdih>
3.403

> <Idih>
0.000

> <Tether>
0.000

$$$$
VeraChem MOL file


 26 25  0  0  0  0  0  0  0  0999 V2000     
   17.7052   17.7748   22.9246 N   0  3  0  0  0  0  0  0  0  0  0  0
   17.7449   18.2096   21.9897 H   0  0  0  0  0  0  0  0  0  0  0  0
   17.0565   18.3608   23.4729 H   0  0  0  0  0  0  0  0  0  0  0  0
   19.0800   17.7790   23.5625 C   0  0  0  0  0  0  0  0  0  0  0  0
   19.7358   17.1555   22.9496 H   0  0  0  0  0  0  0  0  0  0  0  0
   18.9926   17.3196   24.5503 H   0  0  0  0  0  0  0  0  0  0  0  0
   19.6842   19.1883   23.6983 C   0  0  0  0  0  0  0  0  0  0  0  0
   19.7446   19.6512   22.7070 H   0  0  0  0  0  0  0  0  0  0  0  0
   19.0124   19.8141   24.3007 H   0  0  0  0  0  0  0  0  0  0  0  0
   21.0807   19.1403   24.3638 C   0  0  0  0  0  0  0  0  0  0  0  0
   21.7489   18.4706   23.8048 H   0  0  0  0  0  0  0  0  0  0  0  0
   20.9679   18.6923   25.3610 H   0  0  0  0  0  0  0  0  0  0  0  0
   21.7384   20.5360   24.5246 C   0  0  0  0  0  0  0  0  0  0  0  0
   20.9678   21.3095   24.6473 H   0  0  0  0  0  0  0  0  0  0  0  0
   22.3106   20.5382   25.4628 H   0  0  0  0  0  0  0  0  0  0  0  0
   22.7125   20.9303   23.3848 C   0  0  0  0  0  0  0  0  0  0  0  0
   23.5384   20.2067   23.3390 H   0  0  0  0  0  0  0  0  0  0  0  0
   23.1700   21.8972   23.6370 H   0  0  0  0  0  0  0  0  0  0  0  0
   22.0531   21.0434   21.9928 C   0  0  0  0  0  0  0  0  0  0  0  0
   21.1810   21.7094   22.0197 H   0  0  0  0  0  0  0  0  0  0  0  0
   21.7337   20.0618   21.6219 H   0  0  0  0  0  0  0  0  0  0  0  0
   22.7647   21.4522   21.2638 H   0  0  0  0  0  0  0  0  0  0  0  0
   17.1836   16.3478   22.8278 C   0  0  0  0  0  0  0  0  0  0  0  0
   17.8682   15.7557   22.2165 H   0  0  0  0  0  0  0  0  0  0  0  0
   17.1189   15.9202   23.8308 H   0  0  0  0  0  0  0  0  0  0  0  0
   16.1933   16.3589   22.3670 H   0  0  0  0  0  0  0  0  0  0  0  0
  1  2  1  0  0  0  0
  1  3  1  0  0  0  0
  1  4  1  0  0  0  0
  4  5  1  0  0  0  0
  4  6  1  0  0  0  0
  4  7  1  0  0  0  0
  7  8  1  0  0  0  0
  7  9  1  0  0  0  0
  7 10  1  0  0  0  0
 10 11  1  0  0  0  0
 10 12  1  0  0  0  0
 10 13  1  0  0  0  0
 13 14  1  0  0  0  0
 13 15  1  0  0  0  0
 13 16  1  0  0  0  0
 16 17  1  0  0  0  0
 16 18  1  0  0  0  0
 16 19  1  0  0  0  0
 19 20  1  0  0  0  0
 19 21  1  0  0  0  0
 19 22  1  0  0  0  0
  1 23  1  0  0  0  0
 23 24  1  0  0  0  0
 23 25  1  0  0  0  0
 23 26  1  0  0  0  0
M  END
> <VConfSearch Rank>
171

> <Conf_Id>
123

> <Delta U+W>
3.101

> <U+W>
24.943

> <U>
74.070

> <W>
-49.127

> <W(PB)>
-51.421

> <W(SA)>
2.295

> <Valence>
4.690

> <Coulomb>
69.115

> <VdW>
0.266

> <VdW6>
-6.809

> <VdW12>
7.075

> <Bond>
0.212

> <Angle>
1.133

> <Pdih>
3.345

> <Idih>
0.000

> <Tether>
0.000

$$$$
VeraChem MOL file


 26 25  0  0  0  0  0  0  0  0999 V2000     
   18.8087   21.3455   22.8617 N   0  3  0  0  0  0  0  0  0  0  0  0
   18.5073   21.2426   21.8803 H   0  0  0  0  0  0  0  0  0  0  0  0
   19.8030   21.6154   22.8186 H   0  0  0  0  0  0  0  0  0  0  0  0
   18.6584   20.0265   23.5948 C   0  0  0  0  0  0  0  0  0  0  0  0
   17.5934   19.7816   23.6166 H   0  0  0  0  0  0  0  0  0  0  0  0
   18.9960   20.1722   24.6239 H   0  0  0  0  0  0  0  0  0  0  0  0
   19.4372   18.8609   22.9539 C   0  0  0  0  0  0  0  0  0  0  0  0
   19.1757   17.9404   23.4877 H   0  0  0  0  0  0  0  0  0  0  0  0
   19.0989   18.7221   21.9185 H   0  0  0  0  0  0  0  0  0  0  0  0
   20.9715   19.0805   22.9823 C   0  0  0  0  0  0  0  0  0  0  0  0
   21.3055   19.3162   24.0023 H   0  0  0  0  0  0  0  0  0  0  0  0
   21.2096   19.9623   22.3726 H   0  0  0  0  0  0  0  0  0  0  0  0
   21.7757   17.8768   22.4249 C   0  0  0  0  0  0  0  0  0  0  0  0
   21.1858   17.3406   21.6688 H   0  0  0  0  0  0  0  0  0  0  0  0
   22.6529   18.2686   21.8915 H   0  0  0  0  0  0  0  0  0  0  0  0
   22.2897   16.8864   23.5012 C   0  0  0  0  0  0  0  0  0  0  0  0
   22.9622   17.4116   24.1938 H   0  0  0  0  0  0  0  0  0  0  0  0
   22.9026   16.1205   23.0055 H   0  0  0  0  0  0  0  0  0  0  0  0
   21.1741   16.1832   24.3051 C   0  0  0  0  0  0  0  0  0  0  0  0
   20.4513   15.6963   23.6379 H   0  0  0  0  0  0  0  0  0  0  0  0
   20.6366   16.8927   24.9462 H   0  0  0  0  0  0  0  0  0  0  0  0
   21.6008   15.4109   24.9580 H   0  0  0  0  0  0  0  0  0  0  0  0
   17.9931   22.4236   23.5617 C   0  0  0  0  0  0  0  0  0  0  0  0
   18.3514   22.5359   24.5873 H   0  0  0  0  0  0  0  0  0  0  0  0
   18.1105   23.3673   23.0243 H   0  0  0  0  0  0  0  0  0  0  0  0
   16.9408   22.1308   23.5672 H   0  0  0  0  0  0  0  0  0  0  0  0
  1  2  1  0  0  0  0
  1  3  1  0  0  0  0
  1  4  1  0  0  0  0
  4  5  1  0  0  0  0
  4  6  1  0  0  0  0
  4  7  1  0  0  0  0
  7  8  1  0  0  0  0
  7  9  1  0  0  0  0
  7 10  1  0  0  0  0
 10 11  1  0  0  0  0
 10 12  1  0  0  0  0
 10 13  1  0  0  0  0
 13 14  1  0  0  0  0
 13 15  1  0  0  0  0
 13 16  1  0  0  0  0
 16 17  1  0  0  0  0
 16 18  1  0  0  0  0
 16 19  1  0  0  0  0
 19 20  1  0  0  0  0
 19 21  1  0  0  0  0
 19 22  1  0  0  0  0
  1 23  1  0  0  0  0
 23 24  1  0  0  0  0
 23 25  1  0  0  0  0
 23 26  1  0  0  0  0
M  END
> <VConfSearch Rank>
172

> <Conf_Id>
111

> <Delta U+W>
3.383

> <U+W>
25.225

> <U>
74.516

> <W>
-49.292

> <W(PB)>
-51.558

> <W(SA)>
2.266

> <Valence>
4.842

> <Coulomb>
69.333

> <VdW>
0.342

> <VdW6>
-7.369

> <VdW12>
7.711

> <Bond>
0.232

> <Angle>
1.153

> <Pdih>
3.457

> <Idih>
0.000

> <Tether>
0.000

$$$$
VeraChem MOL file


 26 25  0  0  0  0  0  0  0  0999 V2000     
   20.9505   18.6253   25.4385 N   0  3  0  0  0  0  0  0  0  0  0  0
   20.3385   18.0743   26.0602 H   0  0  0  0  0  0  0  0  0  0  0  0
   20.4231   19.4841   25.2207 H   0  0  0  0  0  0  0  0  0  0  0  0
   21.2304   17.8528   24.1643 C   0  0  0  0  0  0  0  0  0  0  0  0
   21.7784   16.9480   24.4393 H   0  0  0  0  0  0  0  0  0  0  0  0
   21.8814   18.4648   23.5357 H   0  0  0  0  0  0  0  0  0  0  0  0
   19.9610   17.4634   23.3785 C   0  0  0  0  0  0  0  0  0  0  0  0
   20.2576   16.8708   22.5029 H   0  0  0  0  0  0  0  0  0  0  0  0
   19.3439   16.8013   24.0003 H   0  0  0  0  0  0  0  0  0  0  0  0
   19.1072   18.6701   22.9127 C   0  0  0  0  0  0  0  0  0  0  0  0
   18.7312   19.2218   23.7844 H   0  0  0  0  0  0  0  0  0  0  0  0
   18.2219   18.2795   22.3943 H   0  0  0  0  0  0  0  0  0  0  0  0
   19.8747   19.6346   21.9727 C   0  0  0  0  0  0  0  0  0  0  0  0
   20.7732   20.0077   22.4815 H   0  0  0  0  0  0  0  0  0  0  0  0
   20.2262   19.0870   21.0873 H   0  0  0  0  0  0  0  0  0  0  0  0
   19.0355   20.8558   21.5243 C   0  0  0  0  0  0  0  0  0  0  0  0
   19.6848   21.5411   20.9616 H   0  0  0  0  0  0  0  0  0  0  0  0
   18.6909   21.4146   22.4057 H   0  0  0  0  0  0  0  0  0  0  0  0
   17.8244   20.4814   20.6395 C   0  0  0  0  0  0  0  0  0  0  0  0
   17.0805   19.8996   21.1974 H   0  0  0  0  0  0  0  0  0  0  0  0
   18.1389   19.8931   19.7677 H   0  0  0  0  0  0  0  0  0  0  0  0
   17.3245   21.3863   20.2704 H   0  0  0  0  0  0  0  0  0  0  0  0
   22.2593   18.9644   26.1379 C   0  0  0  0  0  0  0  0  0  0  0  0
   22.0430   19.5211   27.0525 H   0  0  0  0  0  0  0  0  0  0  0  0
   22.7845   18.0392   26.3847 H   0  0  0  0  0  0  0  0  0  0  0  0
   22.8750   19.5733   25.4722 H   0  0  0  0  0  0  0  0  0  0  0  0
  1  2  1  0  0  0  0
  1  3  1  0  0  0  0
  1  4  1  0  0  0  0
  4  5  1  0  0  0  0
  4  6  1  0  0  0  0
  4  7  1  0  0  0  0
  7  8  1  0  0  0  0
  7  9  1  0  0  0  0
  7 10  1  0  0  0  0
 10 11  1  0  0  0  0
 10 12  1  0  0  0  0
 10 13  1  0  0  0  0
 13 14  1  0  0  0  0
 13 15  1  0  0  0  0
 13 16  1  0  0  0  0
 16 17  1  0  0  0  0
 16 18  1  0  0  0  0
 16 19  1  0  0  0  0
 19 20  1  0  0  0  0
 19 21  1  0  0  0  0
 19 22  1  0  0  0  0
  1 23  1  0  0  0  0
 23 24  1  0  0  0  0
 23 25  1  0  0  0  0
 23 26  1  0  0  0  0
M  END
> <VConfSearch Rank>
173

> <Conf_Id>
126

> <Delta U+W>
1.519

> <U+W>
23.361

> <U>
72.579

> <W>
-49.218

> <W(PB)>
-51.496

> <W(SA)>
2.279

> <Valence>
2.678

> <Coulomb>
69.622

> <VdW>
0.279

> <VdW6>
-7.328

> <VdW12>
7.608

> <Bond>
0.212

> <Angle>
0.911

> <Pdih>
1.555

> <Idih>
0.000

> <Tether>
0.000

$$$$
VeraChem MOL file


 26 25  0  0  0  0  0  0  0  0999 V2000     
   20.9576   17.6695   24.9658 N   0  3  0  0  0  0  0  0  0  0  0  0
   20.2708   18.4148   25.1549 H   0  0  0  0  0  0  0  0  0  0  0  0
   21.8392   17.9890   25.3964 H   0  0  0  0  0  0  0  0  0  0  0  0
   21.1392   17.5005   23.4701 C   0  0  0  0  0  0  0  0  0  0  0  0
   20.1893   17.1595   23.0519 H   0  0  0  0  0  0  0  0  0  0  0  0
   21.8805   16.7127   23.3135 H   0  0  0  0  0  0  0  0  0  0  0  0
   21.5970   18.7847   22.7477 C   0  0  0  0  0  0  0  0  0  0  0  0
   22.5795   19.0835   23.1364 H   0  0  0  0  0  0  0  0  0  0  0  0
   21.7465   18.5556   21.6842 H   0  0  0  0  0  0  0  0  0  0  0  0
   20.6115   19.9735   22.8800 C   0  0  0  0  0  0  0  0  0  0  0  0
   21.0472   20.8353   22.3580 H   0  0  0  0  0  0  0  0  0  0  0  0
   20.5206   20.2694   23.9335 H   0  0  0  0  0  0  0  0  0  0  0  0
   19.2074   19.6705   22.2973 C   0  0  0  0  0  0  0  0  0  0  0  0
   19.2972   19.4020   21.2356 H   0  0  0  0  0  0  0  0  0  0  0  0
   18.7802   18.7940   22.8021 H   0  0  0  0  0  0  0  0  0  0  0  0
   18.2103   20.8450   22.4498 C   0  0  0  0  0  0  0  0  0  0  0  0
   18.1069   21.1102   23.5113 H   0  0  0  0  0  0  0  0  0  0  0  0
   17.2174   20.5083   22.1200 H   0  0  0  0  0  0  0  0  0  0  0  0
   18.6044   22.0989   21.6362 C   0  0  0  0  0  0  0  0  0  0  0  0
   18.7463   21.8535   20.5757 H   0  0  0  0  0  0  0  0  0  0  0  0
   19.5307   22.5502   22.0122 H   0  0  0  0  0  0  0  0  0  0  0  0
   17.8174   22.8614   21.7012 H   0  0  0  0  0  0  0  0  0  0  0  0
   20.5043   16.3549   25.5852 C   0  0  0  0  0  0  0  0  0  0  0  0
   19.5551   16.0547   25.1360 H   0  0  0  0  0  0  0  0  0  0  0  0
   21.2610   15.5900   25.3976 H   0  0  0  0  0  0  0  0  0  0  0  0
   20.3766   16.4912   26.6614 H   0  0  0  0  0  0  0  0  0  0  0  0
  1  2  1  0  0  0  0
  1  3  1  0  0  0  0
  1  4  1  0  0  0  0
  4  5  1  0  0  0  0
  4  6  1  0  0  0  0
  4  7  1  0  0  0  0
  7  8  1  0  0  0  0
  7  9  1  0  0  0  0
  7 10  1  0  0  0  0
 10 11  1  0  0  0  0
 10 12  1  0  0  0  0
 10 13  1  0  0  0  0
 13 14  1  0  0  0  0
 13 15  1  0  0  0  0
 13 16  1  0  0  0  0
 16 17  1  0  0  0  0
 16 18  1  0  0  0  0
 16 19  1  0  0  0  0
 19 20  1  0  0  0  0
 19 21  1  0  0  0  0
 19 22  1  0  0  0  0
  1 23  1  0  0  0  0
 23 24  1  0  0  0  0
 23 25  1  0  0  0  0
 23 26  1  0  0  0  0
M  END
> <VConfSearch Rank>
174

> <Conf_Id>
134

> <Delta U+W>
1.464

> <U+W>
23.306

> <U>
72.579

> <W>
-49.273

> <W(PB)>
-51.540

> <W(SA)>
2.267

> <Valence>
2.677

> <Coulomb>
69.622

> <VdW>
0.280

> <VdW6>
-7.328

> <VdW12>
7.608

> <Bond>
0.212

> <Angle>
0.911

> <Pdih>
1.555

> <Idih>
0.000

> <Tether>
0.000

$$$$
VeraChem MOL file


 26 25  0  0  0  0  0  0  0  0999 V2000     
   19.0147   18.1136   25.7073 N   0  3  0  0  0  0  0  0  0  0  0  0
   18.1364   18.0326   25.1717 H   0  0  0  0  0  0  0  0  0  0  0  0
   18.9245   18.9849   26.2527 H   0  0  0  0  0  0  0  0  0  0  0  0
   20.1964   18.2077   24.7631 C   0  0  0  0  0  0  0  0  0  0  0  0
   20.2518   17.2721   24.2009 H   0  0  0  0  0  0  0  0  0  0  0  0
   21.1020   18.3002   25.3679 H   0  0  0  0  0  0  0  0  0  0  0  0
   20.1024   19.3939   23.7864 C   0  0  0  0  0  0  0  0  0  0  0  0
   19.1810   19.3001   23.1980 H   0  0  0  0  0  0  0  0  0  0  0  0
   20.0310   20.3306   24.3550 H   0  0  0  0  0  0  0  0  0  0  0  0
   21.3295   19.4477   22.8463 C   0  0  0  0  0  0  0  0  0  0  0  0
   21.3802   18.5278   22.2485 H   0  0  0  0  0  0  0  0  0  0  0  0
   22.2445   19.4620   23.4547 H   0  0  0  0  0  0  0  0  0  0  0  0
   21.3438   20.6869   21.9140 C   0  0  0  0  0  0  0  0  0  0  0  0
   21.4074   21.5956   22.5284 H   0  0  0  0  0  0  0  0  0  0  0  0
   22.2642   20.6658   21.3142 H   0  0  0  0  0  0  0  0  0  0  0  0
   20.1280   20.8132   20.9605 C   0  0  0  0  0  0  0  0  0  0  0  0
   20.2509   21.7229   20.3563 H   0  0  0  0  0  0  0  0  0  0  0  0
   19.2056   20.9602   21.5381 H   0  0  0  0  0  0  0  0  0  0  0  0
   19.9624   19.6047   20.0112 C   0  0  0  0  0  0  0  0  0  0  0  0
   20.8800   19.4262   19.4358 H   0  0  0  0  0  0  0  0  0  0  0  0
   19.1483   19.7851   19.2974 H   0  0  0  0  0  0  0  0  0  0  0  0
   19.7193   18.6889   20.5642 H   0  0  0  0  0  0  0  0  0  0  0  0
   19.1865   16.9185   26.6348 C   0  0  0  0  0  0  0  0  0  0  0  0
   20.1041   17.0426   27.2141 H   0  0  0  0  0  0  0  0  0  0  0  0
   18.3292   16.8623   27.3093 H   0  0  0  0  0  0  0  0  0  0  0  0
   19.2464   16.0060   26.0375 H   0  0  0  0  0  0  0  0  0  0  0  0
  1  2  1  0  0  0  0
  1  3  1  0  0  0  0
  1  4  1  0  0  0  0
  4  5  1  0  0  0  0
  4  6  1  0  0  0  0
  4  7  1  0  0  0  0
  7  8  1  0  0  0  0
  7  9  1  0  0  0  0
  7 10  1  0  0  0  0
 10 11  1  0  0  0  0
 10 12  1  0  0  0  0
 10 13  1  0  0  0  0
 13 14  1  0  0  0  0
 13 15  1  0  0  0  0
 13 16  1  0  0  0  0
 16 17  1  0  0  0  0
 16 18  1  0  0  0  0
 16 19  1  0  0  0  0
 19 20  1  0  0  0  0
 19 21  1  0  0  0  0
 19 22  1  0  0  0  0
  1 23  1  0  0  0  0
 23 24  1  0  0  0  0
 23 25  1  0  0  0  0
 23 26  1  0  0  0  0
M  END
> <VConfSearch Rank>
175

> <Conf_Id>
30

> <Delta U+W>
0.910

> <U+W>
22.752

> <U>
71.870

> <W>
-49.118

> <W(PB)>
-51.409

> <W(SA)>
2.290

> <Valence>
2.682

> <Coulomb>
68.933

> <VdW>
0.255

> <VdW6>
-6.833

> <VdW12>
7.088

> <Bond>
0.205

> <Angle>
1.003

> <Pdih>
1.473

> <Idih>
0.000

> <Tether>
0.000

$$$$
VeraChem MOL file


 26 25  0  0  0  0  0  0  0  0999 V2000     
   17.3477   19.9864   23.0923 N   0  3  0  0  0  0  0  0  0  0  0  0
   16.8730   19.4037   23.7993 H   0  0  0  0  0  0  0  0  0  0  0  0
   17.3187   19.4372   22.2192 H   0  0  0  0  0  0  0  0  0  0  0  0
   18.7843   20.2403   23.5032 C   0  0  0  0  0  0  0  0  0  0  0  0
   18.7704   20.8150   24.4327 H   0  0  0  0  0  0  0  0  0  0  0  0
   19.2520   20.8515   22.7272 H   0  0  0  0  0  0  0  0  0  0  0  0
   19.5972   18.9487   23.7049 C   0  0  0  0  0  0  0  0  0  0  0  0
   19.1155   18.3301   24.4737 H   0  0  0  0  0  0  0  0  0  0  0  0
   19.5887   18.3717   22.7715 H   0  0  0  0  0  0  0  0  0  0  0  0
   21.0534   19.2595   24.1236 C   0  0  0  0  0  0  0  0  0  0  0  0
   21.0386   19.9028   25.0144 H   0  0  0  0  0  0  0  0  0  0  0  0
   21.5490   19.8451   23.3378 H   0  0  0  0  0  0  0  0  0  0  0  0
   21.8896   17.9946   24.4489 C   0  0  0  0  0  0  0  0  0  0  0  0
   22.8911   18.3085   24.7741 H   0  0  0  0  0  0  0  0  0  0  0  0
   21.4414   17.4819   25.3112 H   0  0  0  0  0  0  0  0  0  0  0  0
   22.0363   16.9799   23.2860 C   0  0  0  0  0  0  0  0  0  0  0  0
   21.0570   16.5574   23.0244 H   0  0  0  0  0  0  0  0  0  0  0  0
   22.6438   16.1334   23.6356 H   0  0  0  0  0  0  0  0  0  0  0  0
   22.6992   17.5803   22.0254 C   0  0  0  0  0  0  0  0  0  0  0  0
   22.0695   18.3543   21.5694 H   0  0  0  0  0  0  0  0  0  0  0  0
   22.8643   16.8015   21.2697 H   0  0  0  0  0  0  0  0  0  0  0  0
   23.6730   18.0263   22.2660 H   0  0  0  0  0  0  0  0  0  0  0  0
   16.6181   21.3108   22.9145 C   0  0  0  0  0  0  0  0  0  0  0  0
   15.5852   21.1138   22.6189 H   0  0  0  0  0  0  0  0  0  0  0  0
   16.6333   21.8588   23.8591 H   0  0  0  0  0  0  0  0  0  0  0  0
   17.1185   21.8953   22.1393 H   0  0  0  0  0  0  0  0  0  0  0  0
  1  2  1  0  0  0  0
  1  3  1  0  0  0  0
  1  4  1  0  0  0  0
  4  5  1  0  0  0  0
  4  6  1  0  0  0  0
  4  7  1  0  0  0  0
  7  8  1  0  0  0  0
  7  9  1  0  0  0  0
  7 10  1  0  0  0  0
 10 11  1  0  0  0  0
 10 12  1  0  0  0  0
 10 13  1  0  0  0  0
 13 14  1  0  0  0  0
 13 15  1  0  0  0  0
 13 16  1  0  0  0  0
 16 17  1  0  0  0  0
 16 18  1  0  0  0  0
 16 19  1  0  0  0  0
 19 20  1  0  0  0  0
 19 21  1  0  0  0  0
 19 22  1  0  0  0  0
  1 23  1  0  0  0  0
 23 24  1  0  0  0  0
 23 25  1  0  0  0  0
 23 26  1  0  0  0  0
M  END
> <VConfSearch Rank>
176

> <Conf_Id>
29

> <Delta U+W>
0.886

> <U+W>
22.729

> <U>
71.870

> <W>
-49.141

> <W(PB)>
-51.404

> <W(SA)>
2.262

> <Valence>
2.682

> <Coulomb>
68.933

> <VdW>
0.255

> <VdW6>
-6.833

> <VdW12>
7.088

> <Bond>
0.205

> <Angle>
1.003

> <Pdih>
1.473

> <Idih>
0.000

> <Tether>
0.000

$$$$
VeraChem MOL file


 26 25  0  0  0  0  0  0  0  0999 V2000     
   18.1687   17.9065   24.7973 N   0  3  0  0  0  0  0  0  0  0  0  0
   17.5455   18.5348   25.3280 H   0  0  0  0  0  0  0  0  0  0  0  0
   18.9484   17.6884   25.4370 H   0  0  0  0  0  0  0  0  0  0  0  0
   18.6882   18.6091   23.5593 C   0  0  0  0  0  0  0  0  0  0  0  0
   17.8333   18.8331   22.9165 H   0  0  0  0  0  0  0  0  0  0  0  0
   19.3437   17.9125   23.0311 H   0  0  0  0  0  0  0  0  0  0  0  0
   19.4554   19.9078   23.8724 C   0  0  0  0  0  0  0  0  0  0  0  0
   18.7997   20.5863   24.4341 H   0  0  0  0  0  0  0  0  0  0  0  0
   20.3055   19.6862   24.5302 H   0  0  0  0  0  0  0  0  0  0  0  0
   19.9489   20.6324   22.5955 C   0  0  0  0  0  0  0  0  0  0  0  0
   20.4688   21.5555   22.8846 H   0  0  0  0  0  0  0  0  0  0  0  0
   19.0762   20.9554   22.0112 H   0  0  0  0  0  0  0  0  0  0  0  0
   20.8706   19.7826   21.6792 C   0  0  0  0  0  0  0  0  0  0  0  0
   20.2954   18.9482   21.2560 H   0  0  0  0  0  0  0  0  0  0  0  0
   21.1733   20.3970   20.8201 H   0  0  0  0  0  0  0  0  0  0  0  0
   22.1422   19.2190   22.3633 C   0  0  0  0  0  0  0  0  0  0  0  0
   22.7046   18.6297   21.6256 H   0  0  0  0  0  0  0  0  0  0  0  0
   21.8651   18.5161   23.1604 H   0  0  0  0  0  0  0  0  0  0  0  0
   23.0690   20.3164   22.9339 C   0  0  0  0  0  0  0  0  0  0  0  0
   23.9917   19.8730   23.3298 H   0  0  0  0  0  0  0  0  0  0  0  0
   22.5875   20.8639   23.7536 H   0  0  0  0  0  0  0  0  0  0  0  0
   23.3502   21.0386   22.1566 H   0  0  0  0  0  0  0  0  0  0  0  0
   17.4324   16.6346   24.4000 C   0  0  0  0  0  0  0  0  0  0  0  0
   17.0631   16.1384   25.3003 H   0  0  0  0  0  0  0  0  0  0  0  0
   16.5930   16.8935   23.7509 H   0  0  0  0  0  0  0  0  0  0  0  0
   18.1200   15.9723   23.8695 H   0  0  0  0  0  0  0  0  0  0  0  0
  1  2  1  0  0  0  0
  1  3  1  0  0  0  0
  1  4  1  0  0  0  0
  4  5  1  0  0  0  0
  4  6  1  0  0  0  0
  4  7  1  0  0  0  0
  7  8  1  0  0  0  0
  7  9  1  0  0  0  0
  7 10  1  0  0  0  0
 10 11  1  0  0  0  0
 10 12  1  0  0  0  0
 10 13  1  0  0  0  0
 13 14  1  0  0  0  0
 13 15  1  0  0  0  0
 13 16  1  0  0  0  0
 16 17  1  0  0  0  0
 16 18  1  0  0  0  0
 16 19  1  0  0  0  0
 19 20  1  0  0  0  0
 19 21  1  0  0  0  0
 19 22  1  0  0  0  0
  1 23  1  0  0  0  0
 23 24  1  0  0  0  0
 23 25  1  0  0  0  0
 23 26  1  0  0  0  0
M  END
> <VConfSearch Rank>
177

> <Conf_Id>
82

> <Delta U+W>
1.026

> <U+W>
22.868

> <U>
72.455

> <W>
-49.586

> <W(PB)>
-51.821

> <W(SA)>
2.234

> <Valence>
2.908

> <Coulomb>
69.435

> <VdW>
0.112

> <VdW6>
-7.765

> <VdW12>
7.877

> <Bond>
0.233

> <Angle>
1.170

> <Pdih>
1.506

> <Idih>
0.000

> <Tether>
0.000

$$$$
VeraChem MOL file


 26 25  0  0  0  0  0  0  0  0999 V2000     
   22.2181   20.6649   23.2980 N   0  3  0  0  0  0  0  0  0  0  0  0
   22.6472   19.9584   23.9156 H   0  0  0  0  0  0  0  0  0  0  0  0
   22.1469   21.5217   23.8686 H   0  0  0  0  0  0  0  0  0  0  0  0
   20.8395   20.2111   22.8624 C   0  0  0  0  0  0  0  0  0  0  0  0
   20.9604   19.3033   22.2664 H   0  0  0  0  0  0  0  0  0  0  0  0
   20.4160   20.9896   22.2230 H   0  0  0  0  0  0  0  0  0  0  0  0
   19.8879   19.9347   24.0419 C   0  0  0  0  0  0  0  0  0  0  0  0
   20.3194   19.1637   24.6928 H   0  0  0  0  0  0  0  0  0  0  0  0
   19.8013   20.8421   24.6543 H   0  0  0  0  0  0  0  0  0  0  0  0
   18.4729   19.5063   23.5798 C   0  0  0  0  0  0  0  0  0  0  0  0
   18.0099   20.3406   23.0349 H   0  0  0  0  0  0  0  0  0  0  0  0
   17.8408   19.3434   24.4629 H   0  0  0  0  0  0  0  0  0  0  0  0
   18.4370   18.2444   22.6757 C   0  0  0  0  0  0  0  0  0  0  0  0
   17.3905   18.0227   22.4249 H   0  0  0  0  0  0  0  0  0  0  0  0
   18.9280   18.4670   21.7187 H   0  0  0  0  0  0  0  0  0  0  0  0
   19.0838   16.9758   23.2879 C   0  0  0  0  0  0  0  0  0  0  0  0
   20.1580   17.1372   23.4497 H   0  0  0  0  0  0  0  0  0  0  0  0
   19.0098   16.1579   22.5576 H   0  0  0  0  0  0  0  0  0  0  0  0
   18.4190   16.5250   24.6084 C   0  0  0  0  0  0  0  0  0  0  0  0
   18.5618   17.2660   25.4046 H   0  0  0  0  0  0  0  0  0  0  0  0
   18.8548   15.5791   24.9551 H   0  0  0  0  0  0  0  0  0  0  0  0
   17.3409   16.3684   24.4738 H   0  0  0  0  0  0  0  0  0  0  0  0
   23.0931   20.9081   22.0762 C   0  0  0  0  0  0  0  0  0  0  0  0
   22.6360   21.6818   21.4554 H   0  0  0  0  0  0  0  0  0  0  0  0
   24.0826   21.2347   22.4036 H   0  0  0  0  0  0  0  0  0  0  0  0
   23.1806   19.9802   21.5066 H   0  0  0  0  0  0  0  0  0  0  0  0
  1  2  1  0  0  0  0
  1  3  1  0  0  0  0
  1  4  1  0  0  0  0
  4  5  1  0  0  0  0
  4  6  1  0  0  0  0
  4  7  1  0  0  0  0
  7  8  1  0  0  0  0
  7  9  1  0  0  0  0
  7 10  1  0  0  0  0
 10 11  1  0  0  0  0
 10 12  1  0  0  0  0
 10 13  1  0  0  0  0
 13 14  1  0  0  0  0
 13 15  1  0  0  0  0
 13 16  1  0  0  0  0
 16 17  1  0  0  0  0
 16 18  1  0  0  0  0
 16 19  1  0  0  0  0
 19 20  1  0  0  0  0
 19 21  1  0  0  0  0
 19 22  1  0  0  0  0
  1 23  1  0  0  0  0
 23 24  1  0  0  0  0
 23 25  1  0  0  0  0
 23 26  1  0  0  0  0
M  END
> <VConfSearch Rank>
178

> <Conf_Id>
71

> <Delta U+W>
1.096

> <U+W>
22.938

> <U>
72.455

> <W>
-49.517

> <W(PB)>
-51.795

> <W(SA)>
2.278

> <Valence>
2.908

> <Coulomb>
69.435

> <VdW>
0.112

> <VdW6>
-7.766

> <VdW12>
7.877

> <Bond>
0.233

> <Angle>
1.170

> <Pdih>
1.506

> <Idih>
0.000

> <Tether>
0.000

$$$$
VeraChem MOL file


 26 25  0  0  0  0  0  0  0  0999 V2000     
   18.2020   19.5503   24.8637 N   0  3  0  0  0  0  0  0  0  0  0  0
   18.3677   18.6339   24.4215 H   0  0  0  0  0  0  0  0  0  0  0  0
   17.1806   19.6926   24.8164 H   0  0  0  0  0  0  0  0  0  0  0  0
   18.9066   20.6425   24.0747 C   0  0  0  0  0  0  0  0  0  0  0  0
   18.7227   21.5914   24.5847 H   0  0  0  0  0  0  0  0  0  0  0  0
   18.4311   20.6940   23.0923 H   0  0  0  0  0  0  0  0  0  0  0  0
   20.4280   20.4413   23.8899 C   0  0  0  0  0  0  0  0  0  0  0  0
   20.8237   21.2809   23.3033 H   0  0  0  0  0  0  0  0  0  0  0  0
   20.9233   20.4975   24.8679 H   0  0  0  0  0  0  0  0  0  0  0  0
   20.8130   19.1091   23.1983 C   0  0  0  0  0  0  0  0  0  0  0  0
   20.4913   18.2611   23.8173 H   0  0  0  0  0  0  0  0  0  0  0  0
   21.9084   19.0546   23.1517 H   0  0  0  0  0  0  0  0  0  0  0  0
   20.2262   18.9707   21.7703 C   0  0  0  0  0  0  0  0  0  0  0  0
   19.1324   19.0552   21.8113 H   0  0  0  0  0  0  0  0  0  0  0  0
   20.5766   19.8029   21.1441 H   0  0  0  0  0  0  0  0  0  0  0  0
   20.5788   17.6271   21.0870 C   0  0  0  0  0  0  0  0  0  0  0  0
   20.0340   17.5633   20.1346 H   0  0  0  0  0  0  0  0  0  0  0  0
   20.2191   16.7907   21.7025 H   0  0  0  0  0  0  0  0  0  0  0  0
   22.0892   17.4547   20.8068 C   0  0  0  0  0  0  0  0  0  0  0  0
   22.6674   17.3845   21.7364 H   0  0  0  0  0  0  0  0  0  0  0  0
   22.4808   18.2958   20.2202 H   0  0  0  0  0  0  0  0  0  0  0  0
   22.2712   16.5348   20.2363 H   0  0  0  0  0  0  0  0  0  0  0  0
   18.6582   19.5394   26.3180 C   0  0  0  0  0  0  0  0  0  0  0  0
   18.1102   18.7646   26.8588 H   0  0  0  0  0  0  0  0  0  0  0  0
   19.7287   19.3287   26.3588 H   0  0  0  0  0  0  0  0  0  0  0  0
   18.4548   20.5150   26.7649 H   0  0  0  0  0  0  0  0  0  0  0  0
  1  2  1  0  0  0  0
  1  3  1  0  0  0  0
  1  4  1  0  0  0  0
  4  5  1  0  0  0  0
  4  6  1  0  0  0  0
  4  7  1  0  0  0  0
  7  8  1  0  0  0  0
  7  9  1  0  0  0  0
  7 10  1  0  0  0  0
 10 11  1  0  0  0  0
 10 12  1  0  0  0  0
 10 13  1  0  0  0  0
 13 14  1  0  0  0  0
 13 15  1  0  0  0  0
 13 16  1  0  0  0  0
 16 17  1  0  0  0  0
 16 18  1  0  0  0  0
 16 19  1  0  0  0  0
 19 20  1  0  0  0  0
 19 21  1  0  0  0  0
 19 22  1  0  0  0  0
  1 23  1  0  0  0  0
 23 24  1  0  0  0  0
 23 25  1  0  0  0  0
 23 26  1  0  0  0  0
M  END
> <VConfSearch Rank>
179

> <Conf_Id>
84

> <Delta U+W>
1.456

> <U+W>
23.298

> <U>
73.042

> <W>
-49.744

> <W(PB)>
-51.966

> <W(SA)>
2.222

> <Valence>
2.938

> <Coulomb>
69.625

> <VdW>
0.478

> <VdW6>
-8.182

> <VdW12>
8.660

> <Bond>
0.253

> <Angle>
1.038

> <Pdih>
1.647

> <Idih>
0.000

> <Tether>
0.000

$$$$
VeraChem MOL file


 26 25  0  0  0  0  0  0  0  0999 V2000     
   21.8310   17.7759   23.8241 N   0  3  0  0  0  0  0  0  0  0  0  0
   21.6804   18.7358   24.1693 H   0  0  0  0  0  0  0  0  0  0  0  0
   22.7270   17.8025   23.3131 H   0  0  0  0  0  0  0  0  0  0  0  0
   20.7073   17.3806   22.8863 C   0  0  0  0  0  0  0  0  0  0  0  0
   19.7794   17.3597   23.4627 H   0  0  0  0  0  0  0  0  0  0  0  0
   20.9109   16.3660   22.5345 H   0  0  0  0  0  0  0  0  0  0  0  0
   20.5468   18.3206   21.6735 C   0  0  0  0  0  0  0  0  0  0  0  0
   21.4658   18.2931   21.0731 H   0  0  0  0  0  0  0  0  0  0  0  0
   19.7490   17.9288   21.0287 H   0  0  0  0  0  0  0  0  0  0  0  0
   20.2240   19.7886   22.0503 C   0  0  0  0  0  0  0  0  0  0  0  0
   20.1416   20.3760   21.1252 H   0  0  0  0  0  0  0  0  0  0  0  0
   21.0611   20.2235   22.6126 H   0  0  0  0  0  0  0  0  0  0  0  0
   18.9148   19.9360   22.8627 C   0  0  0  0  0  0  0  0  0  0  0  0
   18.0847   19.4784   22.3070 H   0  0  0  0  0  0  0  0  0  0  0  0
   18.9984   19.3929   23.8136 H   0  0  0  0  0  0  0  0  0  0  0  0
   18.5836   21.4167   23.1541 C   0  0  0  0  0  0  0  0  0  0  0  0
   18.4870   21.9688   22.2086 H   0  0  0  0  0  0  0  0  0  0  0  0
   19.4116   21.8804   23.7083 H   0  0  0  0  0  0  0  0  0  0  0  0
   17.2792   21.5620   23.9667 C   0  0  0  0  0  0  0  0  0  0  0  0
   16.4256   21.1371   23.4227 H   0  0  0  0  0  0  0  0  0  0  0  0
   17.0605   22.6197   24.1629 H   0  0  0  0  0  0  0  0  0  0  0  0
   17.3573   21.0493   24.9343 H   0  0  0  0  0  0  0  0  0  0  0  0
   21.9060   16.7956   24.9862 C   0  0  0  0  0  0  0  0  0  0  0  0
   22.0958   15.7925   24.5980 H   0  0  0  0  0  0  0  0  0  0  0  0
   22.7181   17.0925   25.6537 H   0  0  0  0  0  0  0  0  0  0  0  0
   20.9585   16.8091   25.5293 H   0  0  0  0  0  0  0  0  0  0  0  0
  1  2  1  0  0  0  0
  1  3  1  0  0  0  0
  1  4  1  0  0  0  0
  4  5  1  0  0  0  0
  4  6  1  0  0  0  0
  4  7  1  0  0  0  0
  7  8  1  0  0  0  0
  7  9  1  0  0  0  0
  7 10  1  0  0  0  0
 10 11  1  0  0  0  0
 10 12  1  0  0  0  0
 10 13  1  0  0  0  0
 13 14  1  0  0  0  0
 13 15  1  0  0  0  0
 13 16  1  0  0  0  0
 16 17  1  0  0  0  0
 16 18  1  0  0  0  0
 16 19  1  0  0  0  0
 19 20  1  0  0  0  0
 19 21  1  0  0  0  0
 19 22  1  0  0  0  0
  1 23  1  0  0  0  0
 23 24  1  0  0  0  0
 23 25  1  0  0  0  0
 23 26  1  0  0  0  0
M  END
> <VConfSearch Rank>
180

> <Conf_Id>
73

> <Delta U+W>
0.884

> <U+W>
22.726

> <U>
71.905

> <W>
-49.179

> <W(PB)>
-51.494

> <W(SA)>
2.315

> <Valence>
2.125

> <Coulomb>
69.686

> <VdW>
0.093

> <VdW6>
-6.766

> <VdW12>
6.859

> <Bond>
0.169

> <Angle>
0.621

> <Pdih>
1.336

> <Idih>
0.000

> <Tether>
0.000

$$$$
VeraChem MOL file


 26 25  0  0  0  0  0  0  0  0999 V2000     
   20.2590   18.0992   26.3600 N   0  3  0  0  0  0  0  0  0  0  0  0
   21.1361   17.5687   26.2411 H   0  0  0  0  0  0  0  0  0  0  0  0
   19.5039   17.3986   26.2975 H   0  0  0  0  0  0  0  0  0  0  0  0
   20.1140   19.1246   25.2535 C   0  0  0  0  0  0  0  0  0  0  0  0
   20.9344   19.8402   25.3499 H   0  0  0  0  0  0  0  0  0  0  0  0
   19.1725   19.6568   25.4108 H   0  0  0  0  0  0  0  0  0  0  0  0
   20.1298   18.5055   23.8440 C   0  0  0  0  0  0  0  0  0  0  0  0
   21.0702   17.9580   23.6962 H   0  0  0  0  0  0  0  0  0  0  0  0
   19.3142   17.7752   23.7570 H   0  0  0  0  0  0  0  0  0  0  0  0
   19.9794   19.5861   22.7503 C   0  0  0  0  0  0  0  0  0  0  0  0
   20.7941   20.3178   22.8441 H   0  0  0  0  0  0  0  0  0  0  0  0
   19.0402   20.1354   22.9049 H   0  0  0  0  0  0  0  0  0  0  0  0
   19.9937   18.9759   21.3302 C   0  0  0  0  0  0  0  0  0  0  0  0
   20.9328   18.4268   21.1753 H   0  0  0  0  0  0  0  0  0  0  0  0
   19.1791   18.2444   21.2361 H   0  0  0  0  0  0  0  0  0  0  0  0
   19.8433   20.0570   20.2366 C   0  0  0  0  0  0  0  0  0  0  0  0
   20.6574   20.7901   20.3248 H   0  0  0  0  0  0  0  0  0  0  0  0
   18.9038   20.6076   20.3856 H   0  0  0  0  0  0  0  0  0  0  0  0
   19.8580   19.4440   18.8199 C   0  0  0  0  0  0  0  0  0  0  0  0
   19.7502   20.2266   18.0577 H   0  0  0  0  0  0  0  0  0  0  0  0
   19.0334   18.7311   18.6895 H   0  0  0  0  0  0  0  0  0  0  0  0
   20.8007   18.9150   18.6282 H   0  0  0  0  0  0  0  0  0  0  0  0
   20.2336   18.7923   27.7153 C   0  0  0  0  0  0  0  0  0  0  0  0
   19.2838   19.3188   27.8317 H   0  0  0  0  0  0  0  0  0  0  0  0
   20.3389   18.0429   28.5030 H   0  0  0  0  0  0  0  0  0  0  0  0
   21.0604   19.5039   27.7704 H   0  0  0  0  0  0  0  0  0  0  0  0
  1  2  1  0  0  0  0
  1  3  1  0  0  0  0
  1  4  1  0  0  0  0
  4  5  1  0  0  0  0
  4  6  1  0  0  0  0
  4  7  1  0  0  0  0
  7  8  1  0  0  0  0
  7  9  1  0  0  0  0
  7 10  1  0  0  0  0
 10 11  1  0  0  0  0
 10 12  1  0  0  0  0
 10 13  1  0  0  0  0
 13 14  1  0  0  0  0
 13 15  1  0  0  0  0
 13 16  1  0  0  0  0
 16 17  1  0  0  0  0
 16 18  1  0  0  0  0
 16 19  1  0  0  0  0
 19 20  1  0  0  0  0
 19 21  1  0  0  0  0
 19 22  1  0  0  0  0
  1 23  1  0  0  0  0
 23 24  1  0  0  0  0
 23 25  1  0  0  0  0
 23 26  1  0  0  0  0
M  END
> <VConfSearch Rank>
181

> <Conf_Id>
11

> <Delta U+W>
0.000

> <U+W>
21.842

> <U>
70.357

> <W>
-48.515

> <W(PB)>
-50.856

> <W(SA)>
2.341

> <Valence>
1.714

> <Coulomb>
68.480

> <VdW>
0.163

> <VdW6>
-5.268

> <VdW12>
5.431

> <Bond>
0.126

> <Angle>
0.350

> <Pdih>
1.238

> <Idih>
0.000

> <Tether>
0.000

$$$$
VeraChem MOL file


 26 25  0  0  0  0  0  0  0  0999 V2000     
   16.8668   19.0047   24.5329 N   0  3  0  0  0  0  0  0  0  0  0  0
   16.3067   18.4329   25.1850 H   0  0  0  0  0  0  0  0  0  0  0  0
   16.4125   18.8825   23.6146 H   0  0  0  0  0  0  0  0  0  0  0  0
   18.2911   18.4769   24.4889 C   0  0  0  0  0  0  0  0  0  0  0  0
   18.2320   17.3957   24.3400 H   0  0  0  0  0  0  0  0  0  0  0  0
   18.7483   18.6602   25.4644 H   0  0  0  0  0  0  0  0  0  0  0  0
   19.1665   19.0884   23.3761 C   0  0  0  0  0  0  0  0  0  0  0  0
   18.6750   18.9431   22.4050 H   0  0  0  0  0  0  0  0  0  0  0  0
   19.2607   20.1711   23.5306 H   0  0  0  0  0  0  0  0  0  0  0  0
   20.5720   18.4480   23.3487 C   0  0  0  0  0  0  0  0  0  0  0  0
   20.4775   17.3638   23.1959 H   0  0  0  0  0  0  0  0  0  0  0  0
   21.0578   18.5900   24.3242 H   0  0  0  0  0  0  0  0  0  0  0  0
   21.4596   19.0513   22.2363 C   0  0  0  0  0  0  0  0  0  0  0  0
   20.9738   18.9096   21.2609 H   0  0  0  0  0  0  0  0  0  0  0  0
   21.5545   20.1354   22.3890 H   0  0  0  0  0  0  0  0  0  0  0  0
   22.8653   18.4105   22.2092 C   0  0  0  0  0  0  0  0  0  0  0  0
   22.7759   17.3261   22.0540 H   0  0  0  0  0  0  0  0  0  0  0  0
   23.3565   18.5517   23.1822 H   0  0  0  0  0  0  0  0  0  0  0  0
   23.7488   19.0155   21.0973 C   0  0  0  0  0  0  0  0  0  0  0  0
   24.7420   18.5481   21.0940 H   0  0  0  0  0  0  0  0  0  0  0  0
   23.8851   20.0948   21.2445 H   0  0  0  0  0  0  0  0  0  0  0  0
   23.3001   18.8595   20.1075 H   0  0  0  0  0  0  0  0  0  0  0  0
   16.8319   20.4662   24.9653 C   0  0  0  0  0  0  0  0  0  0  0  0
   17.3716   21.0726   24.2352 H   0  0  0  0  0  0  0  0  0  0  0  0
   15.7926   20.7975   25.0207 H   0  0  0  0  0  0  0  0  0  0  0  0
   17.3019   20.5614   25.9465 H   0  0  0  0  0  0  0  0  0  0  0  0
  1  2  1  0  0  0  0
  1  3  1  0  0  0  0
  1  4  1  0  0  0  0
  4  5  1  0  0  0  0
  4  6  1  0  0  0  0
  4  7  1  0  0  0  0
  7  8  1  0  0  0  0
  7  9  1  0  0  0  0
  7 10  1  0  0  0  0
 10 11  1  0  0  0  0
 10 12  1  0  0  0  0
 10 13  1  0  0  0  0
 13 14  1  0  0  0  0
 13 15  1  0  0  0  0
 13 16  1  0  0  0  0
 16 17  1  0  0  0  0
 16 18  1  0  0  0  0
 16 19  1  0  0  0  0
 19 20  1  0  0  0  0
 19 21  1  0  0  0  0
 19 22  1  0  0  0  0
  1 23  1  0  0  0  0
 23 24  1  0  0  0  0
 23 25  1  0  0  0  0
 23 26  1  0  0  0  0
M  END
> <VConfSearch Rank>
182

> <Conf_Id>
102

> <Delta U+W>
0.121

> <U+W>
21.963

> <U>
70.745

> <W>
-48.782

> <W(PB)>
-51.111

> <W(SA)>
2.329

> <Valence>
1.993

> <Coulomb>
68.323

> <VdW>
0.429

> <VdW6>
-5.973

> <VdW12>
6.402

> <Bond>
0.161

> <Angle>
0.472

> <Pdih>
1.360

> <Idih>
0.000

> <Tether>
0.000

$$$$
VeraChem MOL file


 26 25  0  0  0  0  0  0  0  0999 V2000     
   18.8720   18.6622   26.3904 N   0  3  0  0  0  0  0  0  0  0  0  0
   18.7210   17.6469   26.2861 H   0  0  0  0  0  0  0  0  0  0  0  0
   18.0711   18.9941   26.9511 H   0  0  0  0  0  0  0  0  0  0  0  0
   18.8547   19.3385   25.0297 C   0  0  0  0  0  0  0  0  0  0  0  0
   19.0566   20.4020   25.1798 H   0  0  0  0  0  0  0  0  0  0  0  0
   17.8421   19.2387   24.6306 H   0  0  0  0  0  0  0  0  0  0  0  0
   19.8542   18.7535   24.0112 C   0  0  0  0  0  0  0  0  0  0  0  0
   20.8791   18.8750   24.3850 H   0  0  0  0  0  0  0  0  0  0  0  0
   19.6760   17.6753   23.9042 H   0  0  0  0  0  0  0  0  0  0  0  0
   19.7233   19.4414   22.6342 C   0  0  0  0  0  0  0  0  0  0  0  0
   19.8959   20.5209   22.7467 H   0  0  0  0  0  0  0  0  0  0  0  0
   18.6967   19.3213   22.2609 H   0  0  0  0  0  0  0  0  0  0  0  0
   20.7193   18.8633   21.6031 C   0  0  0  0  0  0  0  0  0  0  0  0
   21.7459   18.9836   21.9761 H   0  0  0  0  0  0  0  0  0  0  0  0
   20.5469   17.7838   21.4908 H   0  0  0  0  0  0  0  0  0  0  0  0
   20.5880   19.5514   20.2261 C   0  0  0  0  0  0  0  0  0  0  0  0
   20.7618   20.6314   20.3327 H   0  0  0  0  0  0  0  0  0  0  0  0
   19.5632   19.4316   19.8473 H   0  0  0  0  0  0  0  0  0  0  0  0
   21.5841   18.9717   19.1992 C   0  0  0  0  0  0  0  0  0  0  0  0
   22.6207   19.1077   19.5343 H   0  0  0  0  0  0  0  0  0  0  0  0
   21.4757   19.4726   18.2284 H   0  0  0  0  0  0  0  0  0  0  0  0
   21.4128   17.8984   19.0452 H   0  0  0  0  0  0  0  0  0  0  0  0
   20.1743   18.9438   27.1312 C   0  0  0  0  0  0  0  0  0  0  0  0
   20.2974   20.0232   27.2428 H   0  0  0  0  0  0  0  0  0  0  0  0
   20.1336   18.4736   28.1163 H   0  0  0  0  0  0  0  0  0  0  0  0
   21.0105   18.5319   26.5627 H   0  0  0  0  0  0  0  0  0  0  0  0
  1  2  1  0  0  0  0
  1  3  1  0  0  0  0
  1  4  1  0  0  0  0
  4  5  1  0  0  0  0
  4  6  1  0  0  0  0
  4  7  1  0  0  0  0
  7  8  1  0  0  0  0
  7  9  1  0  0  0  0
  7 10  1  0  0  0  0
 10 11  1  0  0  0  0
 10 12  1  0  0  0  0
 10 13  1  0  0  0  0
 13 14  1  0  0  0  0
 13 15  1  0  0  0  0
 13 16  1  0  0  0  0
 16 17  1  0  0  0  0
 16 18  1  0  0  0  0
 16 19  1  0  0  0  0
 19 20  1  0  0  0  0
 19 21  1  0  0  0  0
 19 22  1  0  0  0  0
  1 23  1  0  0  0  0
 23 24  1  0  0  0  0
 23 25  1  0  0  0  0
 23 26  1  0  0  0  0
M  END
> <VConfSearch Rank>
183

> <Conf_Id>
37

> <Delta U+W>
0.125

> <U+W>
21.967

> <U>
70.745

> <W>
-48.778

> <W(PB)>
-51.115

> <W(SA)>
2.337

> <Valence>
1.993

> <Coulomb>
68.323

> <VdW>
0.429

> <VdW6>
-5.973

> <VdW12>
6.403

> <Bond>
0.161

> <Angle>
0.472

> <Pdih>
1.360

> <Idih>
0.000

> <Tether>
0.000

$$$$
VeraChem MOL file


 26 25  0  0  0  0  0  0  0  0999 V2000     
   23.0511   18.7976   23.4843 N   0  3  0  0  0  0  0  0  0  0  0  0
   23.5005   19.0448   22.5889 H   0  0  0  0  0  0  0  0  0  0  0  0
   23.0707   17.7667   23.5258 H   0  0  0  0  0  0  0  0  0  0  0  0
   21.6198   19.2948   23.5059 C   0  0  0  0  0  0  0  0  0  0  0  0
   21.6429   20.3860   23.4498 H   0  0  0  0  0  0  0  0  0  0  0  0
   21.1829   19.0079   24.4653 H   0  0  0  0  0  0  0  0  0  0  0  0
   20.7636   18.7349   22.3535 C   0  0  0  0  0  0  0  0  0  0  0  0
   21.2398   18.9903   21.3975 H   0  0  0  0  0  0  0  0  0  0  0  0
   20.7395   17.6384   22.4095 H   0  0  0  0  0  0  0  0  0  0  0  0
   19.3185   19.2875   22.3564 C   0  0  0  0  0  0  0  0  0  0  0  0
   18.8133   18.9320   21.4489 H   0  0  0  0  0  0  0  0  0  0  0  0
   19.3454   20.3839   22.2888 H   0  0  0  0  0  0  0  0  0  0  0  0
   18.5060   18.8597   23.6054 C   0  0  0  0  0  0  0  0  0  0  0  0
   18.4621   17.7632   23.6612 H   0  0  0  0  0  0  0  0  0  0  0  0
   19.0245   19.1945   24.5135 H   0  0  0  0  0  0  0  0  0  0  0  0
   17.0691   19.4353   23.6325 C   0  0  0  0  0  0  0  0  0  0  0  0
   17.1071   20.5328   23.5884 H   0  0  0  0  0  0  0  0  0  0  0  0
   16.6074   19.1831   24.5975 H   0  0  0  0  0  0  0  0  0  0  0  0
   16.1679   18.8997   22.4964 C   0  0  0  0  0  0  0  0  0  0  0  0
   16.5177   19.2332   21.5117 H   0  0  0  0  0  0  0  0  0  0  0  0
   15.1390   19.2618   22.6197 H   0  0  0  0  0  0  0  0  0  0  0  0
   16.1394   17.8024   22.4986 H   0  0  0  0  0  0  0  0  0  0  0  0
   23.8242   19.3939   24.6525 C   0  0  0  0  0  0  0  0  0  0  0  0
   23.3501   19.0916   25.5888 H   0  0  0  0  0  0  0  0  0  0  0  0
   24.8531   19.0281   24.6251 H   0  0  0  0  0  0  0  0  0  0  0  0
   23.8177   20.4829   24.5690 H   0  0  0  0  0  0  0  0  0  0  0  0
  1  2  1  0  0  0  0
  1  3  1  0  0  0  0
  1  4  1  0  0  0  0
  4  5  1  0  0  0  0
  4  6  1  0  0  0  0
  4  7  1  0  0  0  0
  7  8  1  0  0  0  0
  7  9  1  0  0  0  0
  7 10  1  0  0  0  0
 10 11  1  0  0  0  0
 10 12  1  0  0  0  0
 10 13  1  0  0  0  0
 13 14  1  0  0  0  0
 13 15  1  0  0  0  0
 13 16  1  0  0  0  0
 16 17  1  0  0  0  0
 16 18  1  0  0  0  0
 16 19  1  0  0  0  0
 19 20  1  0  0  0  0
 19 21  1  0  0  0  0
 19 22  1  0  0  0  0
  1 23  1  0  0  0  0
 23 24  1  0  0  0  0
 23 25  1  0  0  0  0
 23 26  1  0  0  0  0
M  END
> <VConfSearch Rank>
184

> <Conf_Id>
137

> <Delta U+W>
1.038

> <U+W>
22.880

> <U>
71.810

> <W>
-48.930

> <W(PB)>
-51.257

> <W(SA)>
2.327

> <Valence>
2.568

> <Coulomb>
68.877

> <VdW>
0.364

> <VdW6>
-6.470

> <VdW12>
6.834

> <Bond>
0.191

> <Angle>
0.752

> <Pdih>
1.626

> <Idih>
0.000

> <Tether>
0.000

$$$$
VeraChem MOL file


 26 25  0  0  0  0  0  0  0  0999 V2000     
   18.9570   18.4561   20.6089 N   0  3  0  0  0  0  0  0  0  0  0  0
   18.5734   19.4140   20.6113 H   0  0  0  0  0  0  0  0  0  0  0  0
   18.1958   17.8545   20.9603 H   0  0  0  0  0  0  0  0  0  0  0  0
   20.1580   18.3711   21.5293 C   0  0  0  0  0  0  0  0  0  0  0  0
   20.9353   19.0262   21.1278 H   0  0  0  0  0  0  0  0  0  0  0  0
   20.5274   17.3428   21.5040 H   0  0  0  0  0  0  0  0  0  0  0  0
   19.8420   18.7724   22.9816 C   0  0  0  0  0  0  0  0  0  0  0  0
   19.4545   19.7989   22.9919 H   0  0  0  0  0  0  0  0  0  0  0  0
   19.0495   18.1222   23.3753 H   0  0  0  0  0  0  0  0  0  0  0  0
   21.0968   18.6669   23.8803 C   0  0  0  0  0  0  0  0  0  0  0  0
   21.8729   19.3540   23.5153 H   0  0  0  0  0  0  0  0  0  0  0  0
   21.5153   17.6547   23.7907 H   0  0  0  0  0  0  0  0  0  0  0  0
   20.8142   18.9504   25.3764 C   0  0  0  0  0  0  0  0  0  0  0  0
   20.0510   18.2518   25.7462 H   0  0  0  0  0  0  0  0  0  0  0  0
   21.7279   18.7389   25.9491 H   0  0  0  0  0  0  0  0  0  0  0  0
   20.3702   20.4055   25.6588 C   0  0  0  0  0  0  0  0  0  0  0  0
   19.4153   20.6149   25.1589 H   0  0  0  0  0  0  0  0  0  0  0  0
   21.1080   21.1061   25.2432 H   0  0  0  0  0  0  0  0  0  0  0  0
   20.2110   20.6688   27.1715 C   0  0  0  0  0  0  0  0  0  0  0  0
   19.4570   20.0027   27.6108 H   0  0  0  0  0  0  0  0  0  0  0  0
   19.8931   21.7036   27.3536 H   0  0  0  0  0  0  0  0  0  0  0  0
   21.1585   20.5097   27.7025 H   0  0  0  0  0  0  0  0  0  0  0  0
   19.3552   18.0440   19.1984 C   0  0  0  0  0  0  0  0  0  0  0  0
   19.7264   17.0169   19.2155 H   0  0  0  0  0  0  0  0  0  0  0  0
   18.4816   18.1096   18.5459 H   0  0  0  0  0  0  0  0  0  0  0  0
   20.1375   18.7144   18.8357 H   0  0  0  0  0  0  0  0  0  0  0  0
  1  2  1  0  0  0  0
  1  3  1  0  0  0  0
  1  4  1  0  0  0  0
  4  5  1  0  0  0  0
  4  6  1  0  0  0  0
  4  7  1  0  0  0  0
  7  8  1  0  0  0  0
  7  9  1  0  0  0  0
  7 10  1  0  0  0  0
 10 11  1  0  0  0  0
 10 12  1  0  0  0  0
 10 13  1  0  0  0  0
 13 14  1  0  0  0  0
 13 15  1  0  0  0  0
 13 16  1  0  0  0  0
 16 17  1  0  0  0  0
 16 18  1  0  0  0  0
 16 19  1  0  0  0  0
 19 20  1  0  0  0  0
 19 21  1  0  0  0  0
 19 22  1  0  0  0  0
  1 23  1  0  0  0  0
 23 24  1  0  0  0  0
 23 25  1  0  0  0  0
 23 26  1  0  0  0  0
M  END
> <VConfSearch Rank>
185

> <Conf_Id>
35

> <Delta U+W>
0.670

> <U+W>
22.512

> <U>
71.348

> <W>
-48.837

> <W(PB)>
-51.150

> <W(SA)>
2.313

> <Valence>
2.262

> <Coulomb>
68.807

> <VdW>
0.280

> <VdW6>
-5.915

> <VdW12>
6.195

> <Bond>
0.164

> <Angle>
0.622

> <Pdih>
1.475

> <Idih>
0.000

> <Tether>
0.000

$$$$
VeraChem MOL file


 26 25  0  0  0  0  0  0  0  0999 V2000     
   19.5425   18.8790   20.3634 N   0  3  0  0  0  0  0  0  0  0  0  0
   18.5138   18.9183   20.4356 H   0  0  0  0  0  0  0  0  0  0  0  0
   19.7850   17.8789   20.4388 H   0  0  0  0  0  0  0  0  0  0  0  0
   20.1764   19.6582   21.4982 C   0  0  0  0  0  0  0  0  0  0  0  0
   19.8893   20.7068   21.3861 H   0  0  0  0  0  0  0  0  0  0  0  0
   21.2616   19.5850   21.3901 H   0  0  0  0  0  0  0  0  0  0  0  0
   19.7595   19.1531   22.8914 C   0  0  0  0  0  0  0  0  0  0  0  0
   18.6674   19.2133   22.9893 H   0  0  0  0  0  0  0  0  0  0  0  0
   20.0358   18.0953   22.9848 H   0  0  0  0  0  0  0  0  0  0  0  0
   20.4296   19.9805   24.0137 C   0  0  0  0  0  0  0  0  0  0  0  0
   20.2073   21.0447   23.8532 H   0  0  0  0  0  0  0  0  0  0  0  0
   21.5219   19.8808   23.9460 H   0  0  0  0  0  0  0  0  0  0  0  0
   19.9600   19.5904   25.4371 C   0  0  0  0  0  0  0  0  0  0  0  0
   20.3942   20.3014   26.1537 H   0  0  0  0  0  0  0  0  0  0  0  0
   18.8699   19.7071   25.5105 H   0  0  0  0  0  0  0  0  0  0  0  0
   20.3599   18.1539   25.8501 C   0  0  0  0  0  0  0  0  0  0  0  0
   21.4439   18.0204   25.7275 H   0  0  0  0  0  0  0  0  0  0  0  0
   19.8725   17.4205   25.1941 H   0  0  0  0  0  0  0  0  0  0  0  0
   19.9702   17.8527   27.3131 C   0  0  0  0  0  0  0  0  0  0  0  0
   20.4718   18.5411   28.0057 H   0  0  0  0  0  0  0  0  0  0  0  0
   20.2581   16.8298   27.5884 H   0  0  0  0  0  0  0  0  0  0  0  0
   18.8866   17.9488   27.4607 H   0  0  0  0  0  0  0  0  0  0  0  0
   20.0057   19.4413   19.0266 C   0  0  0  0  0  0  0  0  0  0  0  0
   21.0928   19.3588   18.9595 H   0  0  0  0  0  0  0  0  0  0  0  0
   19.5420   18.8716   18.2182 H   0  0  0  0  0  0  0  0  0  0  0  0
   19.7091   20.4901   18.9559 H   0  0  0  0  0  0  0  0  0  0  0  0
  1  2  1  0  0  0  0
  1  3  1  0  0  0  0
  1  4  1  0  0  0  0
  4  5  1  0  0  0  0
  4  6  1  0  0  0  0
  4  7  1  0  0  0  0
  7  8  1  0  0  0  0
  7  9  1  0  0  0  0
  7 10  1  0  0  0  0
 10 11  1  0  0  0  0
 10 12  1  0  0  0  0
 10 13  1  0  0  0  0
 13 14  1  0  0  0  0
 13 15  1  0  0  0  0
 13 16  1  0  0  0  0
 16 17  1  0  0  0  0
 16 18  1  0  0  0  0
 16 19  1  0  0  0  0
 19 20  1  0  0  0  0
 19 21  1  0  0  0  0
 19 22  1  0  0  0  0
  1 23  1  0  0  0  0
 23 24  1  0  0  0  0
 23 25  1  0  0  0  0
 23 26  1  0  0  0  0
M  END
> <VConfSearch Rank>
186

> <Conf_Id>
36

> <Delta U+W>
0.662

> <U+W>
22.504

> <U>
71.348

> <W>
-48.844

> <W(PB)>
-51.157

> <W(SA)>
2.313

> <Valence>
2.262

> <Coulomb>
68.807

> <VdW>
0.280

> <VdW6>
-5.916

> <VdW12>
6.195

> <Bond>
0.164

> <Angle>
0.622

> <Pdih>
1.475

> <Idih>
0.000

> <Tether>
0.000

$$$$
VeraChem MOL file


 26 25  0  0  0  0  0  0  0  0999 V2000     
   22.1133   20.0476   21.2057 N   0  3  0  0  0  0  0  0  0  0  0  0
   21.5089   20.7716   20.7868 H   0  0  0  0  0  0  0  0  0  0  0  0
   22.3315   19.3941   20.4374 H   0  0  0  0  0  0  0  0  0  0  0  0
   21.3732   19.3247   22.3129 C   0  0  0  0  0  0  0  0  0  0  0  0
   21.1585   20.0519   23.0994 H   0  0  0  0  0  0  0  0  0  0  0  0
   22.0415   18.5623   22.7209 H   0  0  0  0  0  0  0  0  0  0  0  0
   20.0630   18.6657   21.8400 C   0  0  0  0  0  0  0  0  0  0  0  0
   19.3921   19.4315   21.4284 H   0  0  0  0  0  0  0  0  0  0  0  0
   20.2867   17.9702   21.0202 H   0  0  0  0  0  0  0  0  0  0  0  0
   19.3404   17.8944   22.9697 C   0  0  0  0  0  0  0  0  0  0  0  0
   20.0042   17.1108   23.3609 H   0  0  0  0  0  0  0  0  0  0  0  0
   18.4695   17.3783   22.5424 H   0  0  0  0  0  0  0  0  0  0  0  0
   18.8725   18.8087   24.1277 C   0  0  0  0  0  0  0  0  0  0  0  0
   19.7389   19.2938   24.5969 H   0  0  0  0  0  0  0  0  0  0  0  0
   18.2362   19.6106   23.7284 H   0  0  0  0  0  0  0  0  0  0  0  0
   18.0911   18.0199   25.2021 C   0  0  0  0  0  0  0  0  0  0  0  0
   18.7228   17.2155   25.6046 H   0  0  0  0  0  0  0  0  0  0  0  0
   17.2160   17.5366   24.7453 H   0  0  0  0  0  0  0  0  0  0  0  0
   17.6264   18.9324   26.3573 C   0  0  0  0  0  0  0  0  0  0  0  0
   18.4826   19.4035   26.8575 H   0  0  0  0  0  0  0  0  0  0  0  0
   17.0734   18.3546   27.1092 H   0  0  0  0  0  0  0  0  0  0  0  0
   16.9647   19.7278   25.9904 H   0  0  0  0  0  0  0  0  0  0  0  0
   23.3892   20.6699   21.7560 C   0  0  0  0  0  0  0  0  0  0  0  0
   24.0263   19.8818   22.1634 H   0  0  0  0  0  0  0  0  0  0  0  0
   23.9126   21.1870   20.9487 H   0  0  0  0  0  0  0  0  0  0  0  0
   23.1311   21.3814   22.5435 H   0  0  0  0  0  0  0  0  0  0  0  0
  1  2  1  0  0  0  0
  1  3  1  0  0  0  0
  1  4  1  0  0  0  0
  4  5  1  0  0  0  0
  4  6  1  0  0  0  0
  4  7  1  0  0  0  0
  7  8  1  0  0  0  0
  7  9  1  0  0  0  0
  7 10  1  0  0  0  0
 10 11  1  0  0  0  0
 10 12  1  0  0  0  0
 10 13  1  0  0  0  0
 13 14  1  0  0  0  0
 13 15  1  0  0  0  0
 13 16  1  0  0  0  0
 16 17  1  0  0  0  0
 16 18  1  0  0  0  0
 16 19  1  0  0  0  0
 19 20  1  0  0  0  0
 19 21  1  0  0  0  0
 19 22  1  0  0  0  0
  1 23  1  0  0  0  0
 23 24  1  0  0  0  0
 23 25  1  0  0  0  0
 23 26  1  0  0  0  0
M  END
> <VConfSearch Rank>
187

> <Conf_Id>
46

> <Delta U+W>
0.496

> <U+W>
22.338

> <U>
71.138

> <W>
-48.799

> <W(PB)>
-51.136

> <W(SA)>
2.337

> <Valence>
2.016

> <Coulomb>
68.932

> <VdW>
0.190

> <VdW6>
-5.902

> <VdW12>
6.092

> <Bond>
0.149

> <Angle>
0.477

> <Pdih>
1.390

> <Idih>
0.000

> <Tether>
0.000

$$$$
VeraChem MOL file


 26 25  0  0  0  0  0  0  0  0999 V2000     
   19.2040   16.1578   23.3169 N   0  3  0  0  0  0  0  0  0  0  0  0
   18.5764   15.8473   24.0749 H   0  0  0  0  0  0  0  0  0  0  0  0
   20.1371   15.7954   23.5674 H   0  0  0  0  0  0  0  0  0  0  0  0
   19.2319   17.6714   23.2482 C   0  0  0  0  0  0  0  0  0  0  0  0
   18.2262   18.0141   22.9920 H   0  0  0  0  0  0  0  0  0  0  0  0
   19.9094   17.9552   22.4394 H   0  0  0  0  0  0  0  0  0  0  0  0
   19.6849   18.3324   24.5643 C   0  0  0  0  0  0  0  0  0  0  0  0
   19.0229   18.0047   25.3769 H   0  0  0  0  0  0  0  0  0  0  0  0
   20.6947   17.9867   24.8227 H   0  0  0  0  0  0  0  0  0  0  0  0
   19.6665   19.8777   24.4942 C   0  0  0  0  0  0  0  0  0  0  0  0
   19.9107   20.2782   25.4879 H   0  0  0  0  0  0  0  0  0  0  0  0
   18.6489   20.2218   24.2626 H   0  0  0  0  0  0  0  0  0  0  0  0
   20.6609   20.4513   23.4559 C   0  0  0  0  0  0  0  0  0  0  0  0
   21.6720   20.0785   23.6707 H   0  0  0  0  0  0  0  0  0  0  0  0
   20.3987   20.0982   22.4496 H   0  0  0  0  0  0  0  0  0  0  0  0
   20.6708   21.9963   23.4632 C   0  0  0  0  0  0  0  0  0  0  0  0
   20.9407   22.3615   24.4641 H   0  0  0  0  0  0  0  0  0  0  0  0
   19.6613   22.3749   23.2497 H   0  0  0  0  0  0  0  0  0  0  0  0
   21.6616   22.5673   22.4262 C   0  0  0  0  0  0  0  0  0  0  0  0
   22.6866   22.2332   22.6337 H   0  0  0  0  0  0  0  0  0  0  0  0
   21.6547   23.6648   22.4469 H   0  0  0  0  0  0  0  0  0  0  0  0
   21.3971   22.2481   21.4097 H   0  0  0  0  0  0  0  0  0  0  0  0
   18.7504   15.5870   21.9804 C   0  0  0  0  0  0  0  0  0  0  0  0
   18.7345   14.4966   22.0435 H   0  0  0  0  0  0  0  0  0  0  0  0
   17.7486   15.9579   21.7528 H   0  0  0  0  0  0  0  0  0  0  0  0
   19.4475   15.9011   21.2005 H   0  0  0  0  0  0  0  0  0  0  0  0
  1  2  1  0  0  0  0
  1  3  1  0  0  0  0
  1  4  1  0  0  0  0
  4  5  1  0  0  0  0
  4  6  1  0  0  0  0
  4  7  1  0  0  0  0
  7  8  1  0  0  0  0
  7  9  1  0  0  0  0
  7 10  1  0  0  0  0
 10 11  1  0  0  0  0
 10 12  1  0  0  0  0
 10 13  1  0  0  0  0
 13 14  1  0  0  0  0
 13 15  1  0  0  0  0
 13 16  1  0  0  0  0
 16 17  1  0  0  0  0
 16 18  1  0  0  0  0
 16 19  1  0  0  0  0
 19 20  1  0  0  0  0
 19 21  1  0  0  0  0
 19 22  1  0  0  0  0
  1 23  1  0  0  0  0
 23 24  1  0  0  0  0
 23 25  1  0  0  0  0
 23 26  1  0  0  0  0
M  END
> <VConfSearch Rank>
188

> <Conf_Id>
45

> <Delta U+W>
0.471

> <U+W>
22.313

> <U>
71.138

> <W>
-48.825

> <W(PB)>
-51.169

> <W(SA)>
2.344

> <Valence>
2.016

> <Coulomb>
68.932

> <VdW>
0.190

> <VdW6>
-5.902

> <VdW12>
6.092

> <Bond>
0.149

> <Angle>
0.477

> <Pdih>
1.390

> <Idih>
0.000

> <Tether>
0.000

$$$$
VeraChem MOL file


 26 25  0  0  0  0  0  0  0  0999 V2000     
   18.1453   18.9472   21.5567 N   0  3  0  0  0  0  0  0  0  0  0  0
   18.4395   17.9871   21.7908 H   0  0  0  0  0  0  0  0  0  0  0  0
   18.8307   19.2855   20.8636 H   0  0  0  0  0  0  0  0  0  0  0  0
   18.1826   19.8199   22.7964 C   0  0  0  0  0  0  0  0  0  0  0  0
   17.4526   19.4262   23.5081 H   0  0  0  0  0  0  0  0  0  0  0  0
   17.8657   20.8239   22.5028 H   0  0  0  0  0  0  0  0  0  0  0  0
   19.5694   19.8964   23.4647 C   0  0  0  0  0  0  0  0  0  0  0  0
   20.2938   20.2943   22.7429 H   0  0  0  0  0  0  0  0  0  0  0  0
   19.5174   20.6191   24.2898 H   0  0  0  0  0  0  0  0  0  0  0  0
   20.0430   18.5261   24.0110 C   0  0  0  0  0  0  0  0  0  0  0  0
   20.1860   17.8184   23.1836 H   0  0  0  0  0  0  0  0  0  0  0  0
   19.2527   18.1034   24.6470 H   0  0  0  0  0  0  0  0  0  0  0  0
   21.3476   18.6107   24.8411 C   0  0  0  0  0  0  0  0  0  0  0  0
   21.2036   19.2991   25.6853 H   0  0  0  0  0  0  0  0  0  0  0  0
   21.5457   17.6231   25.2803 H   0  0  0  0  0  0  0  0  0  0  0  0
   22.5797   19.0495   24.0144 C   0  0  0  0  0  0  0  0  0  0  0  0
   22.4346   20.0671   23.6282 H   0  0  0  0  0  0  0  0  0  0  0  0
   22.6954   18.3910   23.1422 H   0  0  0  0  0  0  0  0  0  0  0  0
   23.8727   19.0137   24.8569 C   0  0  0  0  0  0  0  0  0  0  0  0
   23.7992   19.6862   25.7215 H   0  0  0  0  0  0  0  0  0  0  0  0
   24.7355   19.3303   24.2566 H   0  0  0  0  0  0  0  0  0  0  0  0
   24.0749   18.0006   25.2281 H   0  0  0  0  0  0  0  0  0  0  0  0
   16.7425   18.9464   20.9652 C   0  0  0  0  0  0  0  0  0  0  0  0
   16.4655   19.9681   20.6965 H   0  0  0  0  0  0  0  0  0  0  0  0
   16.7297   18.3144   20.0744 H   0  0  0  0  0  0  0  0  0  0  0  0
   16.0410   18.5552   21.7053 H   0  0  0  0  0  0  0  0  0  0  0  0
  1  2  1  0  0  0  0
  1  3  1  0  0  0  0
  1  4  1  0  0  0  0
  4  5  1  0  0  0  0
  4  6  1  0  0  0  0
  4  7  1  0  0  0  0
  7  8  1  0  0  0  0
  7  9  1  0  0  0  0
  7 10  1  0  0  0  0
 10 11  1  0  0  0  0
 10 12  1  0  0  0  0
 10 13  1  0  0  0  0
 13 14  1  0  0  0  0
 13 15  1  0  0  0  0
 13 16  1  0  0  0  0
 16 17  1  0  0  0  0
 16 18  1  0  0  0  0
 16 19  1  0  0  0  0
 19 20  1  0  0  0  0
 19 21  1  0  0  0  0
 19 22  1  0  0  0  0
  1 23  1  0  0  0  0
 23 24  1  0  0  0  0
 23 25  1  0  0  0  0
 23 26  1  0  0  0  0
M  END
> <VConfSearch Rank>
189

> <Conf_Id>
143

> <Delta U+W>
0.915

> <U+W>
22.757

> <U>
71.994

> <W>
-49.237

> <W(PB)>
-51.537

> <W(SA)>
2.300

> <Valence>
2.376

> <Coulomb>
69.315

> <VdW>
0.303

> <VdW6>
-6.508

> <VdW12>
6.810

> <Bond>
0.182

> <Angle>
0.660

> <Pdih>
1.534

> <Idih>
0.000

> <Tether>
0.000

$$$$
VeraChem MOL file


 26 25  0  0  0  0  0  0  0  0999 V2000     
   22.2135   17.7755   22.7045 N   0  3  0  0  0  0  0  0  0  0  0  0
   22.0006   18.2143   21.7961 H   0  0  0  0  0  0  0  0  0  0  0  0
   21.7378   16.8601   22.6874 H   0  0  0  0  0  0  0  0  0  0  0  0
   21.6678   18.6259   23.8356 C   0  0  0  0  0  0  0  0  0  0  0  0
   22.1862   19.5879   23.8161 H   0  0  0  0  0  0  0  0  0  0  0  0
   21.9174   18.1232   24.7735 H   0  0  0  0  0  0  0  0  0  0  0  0
   20.1448   18.8554   23.7704 C   0  0  0  0  0  0  0  0  0  0  0  0
   19.6273   17.8871   23.7597 H   0  0  0  0  0  0  0  0  0  0  0  0
   19.8443   19.3690   24.6918 H   0  0  0  0  0  0  0  0  0  0  0  0
   19.7190   19.7030   22.5467 C   0  0  0  0  0  0  0  0  0  0  0  0
   20.1109   19.2445   21.6294 H   0  0  0  0  0  0  0  0  0  0  0  0
   20.1832   20.6968   22.6134 H   0  0  0  0  0  0  0  0  0  0  0  0
   18.1852   19.8619   22.3814 C   0  0  0  0  0  0  0  0  0  0  0  0
   18.0104   20.4398   21.4632 H   0  0  0  0  0  0  0  0  0  0  0  0
   17.7207   18.8818   22.2053 H   0  0  0  0  0  0  0  0  0  0  0  0
   17.4740   20.5901   23.5512 C   0  0  0  0  0  0  0  0  0  0  0  0
   16.6594   21.2020   23.1389 H   0  0  0  0  0  0  0  0  0  0  0  0
   18.1625   21.2944   24.0386 H   0  0  0  0  0  0  0  0  0  0  0  0
   16.8628   19.6254   24.5945 C   0  0  0  0  0  0  0  0  0  0  0  0
   17.6219   18.9926   25.0672 H   0  0  0  0  0  0  0  0  0  0  0  0
   16.1171   18.9674   24.1297 H   0  0  0  0  0  0  0  0  0  0  0  0
   16.3583   20.1894   25.3897 H   0  0  0  0  0  0  0  0  0  0  0  0
   23.7159   17.5946   22.8703 C   0  0  0  0  0  0  0  0  0  0  0  0
   23.9149   17.0999   23.8235 H   0  0  0  0  0  0  0  0  0  0  0  0
   24.0957   16.9814   22.0501 H   0  0  0  0  0  0  0  0  0  0  0  0
   24.1996   18.5738   22.8535 H   0  0  0  0  0  0  0  0  0  0  0  0
  1  2  1  0  0  0  0
  1  3  1  0  0  0  0
  1  4  1  0  0  0  0
  4  5  1  0  0  0  0
  4  6  1  0  0  0  0
  4  7  1  0  0  0  0
  7  8  1  0  0  0  0
  7  9  1  0  0  0  0
  7 10  1  0  0  0  0
 10 11  1  0  0  0  0
 10 12  1  0  0  0  0
 10 13  1  0  0  0  0
 13 14  1  0  0  0  0
 13 15  1  0  0  0  0
 13 16  1  0  0  0  0
 16 17  1  0  0  0  0
 16 18  1  0  0  0  0
 16 19  1  0  0  0  0
 19 20  1  0  0  0  0
 19 21  1  0  0  0  0
 19 22  1  0  0  0  0
  1 23  1  0  0  0  0
 23 24  1  0  0  0  0
 23 25  1  0  0  0  0
 23 26  1  0  0  0  0
M  END
> <VConfSearch Rank>
190

> <Conf_Id>
76

> <Delta U+W>
3.468

> <U+W>
25.310

> <U>
74.594

> <W>
-49.283

> <W(PB)>
-51.537

> <W(SA)>
2.253

> <Valence>
4.886

> <Coulomb>
69.332

> <VdW>
0.376

> <VdW6>
-7.329

> <VdW12>
7.705

> <Bond>
0.232

> <Angle>
1.251

> <Pdih>
3.403

> <Idih>
0.000

> <Tether>
0.000

$$$$
VeraChem MOL file


 26 25  0  0  0  0  0  0  0  0999 V2000     
   19.4685   19.2730   20.6582 N   0  3  0  0  0  0  0  0  0  0  0  0
   20.0106   20.1501   20.6956 H   0  0  0  0  0  0  0  0  0  0  0  0
   18.4783   19.5598   20.7032 H   0  0  0  0  0  0  0  0  0  0  0  0
   19.8126   18.3941   21.8440 C   0  0  0  0  0  0  0  0  0  0  0  0
   20.8674   18.1194   21.7628 H   0  0  0  0  0  0  0  0  0  0  0  0
   19.2130   17.4832   21.7714 H   0  0  0  0  0  0  0  0  0  0  0  0
   19.5581   19.0749   23.2010 C   0  0  0  0  0  0  0  0  0  0  0  0
   20.1430   19.9998   23.2551 H   0  0  0  0  0  0  0  0  0  0  0  0
   18.5008   19.3633   23.2691 H   0  0  0  0  0  0  0  0  0  0  0  0
   19.9140   18.1348   24.3779 C   0  0  0  0  0  0  0  0  0  0  0  0
   20.9538   17.7899   24.2920 H   0  0  0  0  0  0  0  0  0  0  0  0
   19.2886   17.2348   24.2965 H   0  0  0  0  0  0  0  0  0  0  0  0
   19.6777   18.7718   25.7725 C   0  0  0  0  0  0  0  0  0  0  0  0
   18.8559   19.4995   25.7257 H   0  0  0  0  0  0  0  0  0  0  0  0
   19.3341   17.9822   26.4551 H   0  0  0  0  0  0  0  0  0  0  0  0
   20.9316   19.4242   26.4096 C   0  0  0  0  0  0  0  0  0  0  0  0
   21.7122   18.6632   26.5494 H   0  0  0  0  0  0  0  0  0  0  0  0
   20.6672   19.7760   27.4166 H   0  0  0  0  0  0  0  0  0  0  0  0
   21.5107   20.6103   25.6077 C   0  0  0  0  0  0  0  0  0  0  0  0
   20.7375   21.3592   25.3929 H   0  0  0  0  0  0  0  0  0  0  0  0
   21.9475   20.2749   24.6591 H   0  0  0  0  0  0  0  0  0  0  0  0
   22.3079   21.1051   26.1774 H   0  0  0  0  0  0  0  0  0  0  0  0
   19.7496   18.5265   19.3614 C   0  0  0  0  0  0  0  0  0  0  0  0
   20.8087   18.2627   19.3213 H   0  0  0  0  0  0  0  0  0  0  0  0
   19.1409   17.6202   19.3295 H   0  0  0  0  0  0  0  0  0  0  0  0
   19.4975   19.1702   18.5157 H   0  0  0  0  0  0  0  0  0  0  0  0
  1  2  1  0  0  0  0
  1  3  1  0  0  0  0
  1  4  1  0  0  0  0
  4  5  1  0  0  0  0
  4  6  1  0  0  0  0
  4  7  1  0  0  0  0
  7  8  1  0  0  0  0
  7  9  1  0  0  0  0
  7 10  1  0  0  0  0
 10 11  1  0  0  0  0
 10 12  1  0  0  0  0
 10 13  1  0  0  0  0
 13 14  1  0  0  0  0
 13 15  1  0  0  0  0
 13 16  1  0  0  0  0
 16 17  1  0  0  0  0
 16 18  1  0  0  0  0
 16 19  1  0  0  0  0
 19 20  1  0  0  0  0
 19 21  1  0  0  0  0
 19 22  1  0  0  0  0
  1 23  1  0  0  0  0
 23 24  1  0  0  0  0
 23 25  1  0  0  0  0
 23 26  1  0  0  0  0
M  END
> <VConfSearch Rank>
191

> <Conf_Id>
123

> <Delta U+W>
3.101

> <U+W>
24.943

> <U>
74.070

> <W>
-49.127

> <W(PB)>
-51.421

> <W(SA)>
2.295

> <Valence>
4.690

> <Coulomb>
69.115

> <VdW>
0.266

> <VdW6>
-6.809

> <VdW12>
7.075

> <Bond>
0.212

> <Angle>
1.133

> <Pdih>
3.345

> <Idih>
0.000

> <Tether>
0.000

$$$$
VeraChem MOL file


 26 25  0  0  0  0  0  0  0  0999 V2000     
   17.6946   18.8774   22.2808 N   0  3  0  0  0  0  0  0  0  0  0  0
   17.7942   19.3430   21.3654 H   0  0  0  0  0  0  0  0  0  0  0  0
   17.5993   19.6389   22.9694 H   0  0  0  0  0  0  0  0  0  0  0  0
   18.9309   18.0529   22.5839 C   0  0  0  0  0  0  0  0  0  0  0  0
   18.9908   17.2612   21.8328 H   0  0  0  0  0  0  0  0  0  0  0  0
   18.7930   17.5854   23.5620 H   0  0  0  0  0  0  0  0  0  0  0  0
   20.2420   18.8634   22.5771 C   0  0  0  0  0  0  0  0  0  0  0  0
   21.0771   18.1639   22.6947 H   0  0  0  0  0  0  0  0  0  0  0  0
   20.3733   19.3360   21.5946 H   0  0  0  0  0  0  0  0  0  0  0  0
   20.2837   19.9413   23.6903 C   0  0  0  0  0  0  0  0  0  0  0  0
   20.0572   19.4916   24.6670 H   0  0  0  0  0  0  0  0  0  0  0  0
   19.4866   20.6720   23.4994 H   0  0  0  0  0  0  0  0  0  0  0  0
   21.6325   20.7047   23.7573 C   0  0  0  0  0  0  0  0  0  0  0  0
   22.0984   20.7447   22.7630 H   0  0  0  0  0  0  0  0  0  0  0  0
   21.4218   21.7490   24.0267 H   0  0  0  0  0  0  0  0  0  0  0  0
   22.6404   20.1503   24.7967 C   0  0  0  0  0  0  0  0  0  0  0  0
   22.2024   20.2105   25.8028 H   0  0  0  0  0  0  0  0  0  0  0  0
   23.5227   20.8054   24.8102 H   0  0  0  0  0  0  0  0  0  0  0  0
   23.1036   18.7021   24.5257 C   0  0  0  0  0  0  0  0  0  0  0  0
   23.4942   18.5950   23.5055 H   0  0  0  0  0  0  0  0  0  0  0  0
   22.2823   17.9881   24.6634 H   0  0  0  0  0  0  0  0  0  0  0  0
   23.9033   18.4188   25.2223 H   0  0  0  0  0  0  0  0  0  0  0  0
   16.4605   17.9862   22.2963 C   0  0  0  0  0  0  0  0  0  0  0  0
   16.3591   17.5303   23.2836 H   0  0  0  0  0  0  0  0  0  0  0  0
   15.5784   18.5920   22.0772 H   0  0  0  0  0  0  0  0  0  0  0  0
   16.5706   17.2074   21.5385 H   0  0  0  0  0  0  0  0  0  0  0  0
  1  2  1  0  0  0  0
  1  3  1  0  0  0  0
  1  4  1  0  0  0  0
  4  5  1  0  0  0  0
  4  6  1  0  0  0  0
  4  7  1  0  0  0  0
  7  8  1  0  0  0  0
  7  9  1  0  0  0  0
  7 10  1  0  0  0  0
 10 11  1  0  0  0  0
 10 12  1  0  0  0  0
 10 13  1  0  0  0  0
 13 14  1  0  0  0  0
 13 15  1  0  0  0  0
 13 16  1  0  0  0  0
 16 17  1  0  0  0  0
 16 18  1  0  0  0  0
 16 19  1  0  0  0  0
 19 20  1  0  0  0  0
 19 21  1  0  0  0  0
 19 22  1  0  0  0  0
  1 23  1  0  0  0  0
 23 24  1  0  0  0  0
 23 25  1  0  0  0  0
 23 26  1  0  0  0  0
M  END
> <VConfSearch Rank>
192

> <Conf_Id>
111

> <Delta U+W>
3.383

> <U+W>
25.225

> <U>
74.516

> <W>
-49.292

> <W(PB)>
-51.558

> <W(SA)>
2.266

> <Valence>
4.842

> <Coulomb>
69.333

> <VdW>
0.342

> <VdW6>
-7.369

> <VdW12>
7.711

> <Bond>
0.232

> <Angle>
1.153

> <Pdih>
3.457

> <Idih>
0.000

> <Tether>
0.000

$$$$
VeraChem MOL file


 26 25  0  0  0  0  0  0  0  0999 V2000     
   22.1698   19.4047   22.2236 N   0  3  0  0  0  0  0  0  0  0  0  0
   22.8816   19.8821   22.7981 H   0  0  0  0  0  0  0  0  0  0  0  0
   21.3911   20.0746   22.1340 H   0  0  0  0  0  0  0  0  0  0  0  0
   21.6927   18.1471   22.9232 C   0  0  0  0  0  0  0  0  0  0  0  0
   22.5472   17.4710   23.0080 H   0  0  0  0  0  0  0  0  0  0  0  0
   20.9454   17.6697   22.2852 H   0  0  0  0  0  0  0  0  0  0  0  0
   21.0987   18.3994   24.3246 C   0  0  0  0  0  0  0  0  0  0  0  0
   20.8261   17.4334   24.7700 H   0  0  0  0  0  0  0  0  0  0  0  0
   21.8767   18.8251   24.9721 H   0  0  0  0  0  0  0  0  0  0  0  0
   19.8609   19.3321   24.3314 C   0  0  0  0  0  0  0  0  0  0  0  0
   20.1416   20.3299   23.9692 H   0  0  0  0  0  0  0  0  0  0  0  0
   19.5416   19.4647   25.3732 H   0  0  0  0  0  0  0  0  0  0  0  0
   18.6783   18.7833   23.4928 C   0  0  0  0  0  0  0  0  0  0  0  0
   19.0029   18.6278   22.4556 H   0  0  0  0  0  0  0  0  0  0  0  0
   18.3802   17.7970   23.8743 H   0  0  0  0  0  0  0  0  0  0  0  0
   17.4478   19.7226   23.4744 C   0  0  0  0  0  0  0  0  0  0  0  0
   16.7072   19.3180   22.7703 H   0  0  0  0  0  0  0  0  0  0  0  0
   17.7371   20.7077   23.0824 H   0  0  0  0  0  0  0  0  0  0  0  0
   16.7776   19.8894   24.8574 C   0  0  0  0  0  0  0  0  0  0  0  0
   17.4357   20.4074   25.5658 H   0  0  0  0  0  0  0  0  0  0  0  0
   16.5084   18.9154   25.2861 H   0  0  0  0  0  0  0  0  0  0  0  0
   15.8581   20.4824   24.7692 H   0  0  0  0  0  0  0  0  0  0  0  0
   22.7337   19.0542   20.8537 C   0  0  0  0  0  0  0  0  0  0  0  0
   23.0722   19.9684   20.3610 H   0  0  0  0  0  0  0  0  0  0  0  0
   23.5747   18.3684   20.9766 H   0  0  0  0  0  0  0  0  0  0  0  0
   21.9533   18.5795   20.2548 H   0  0  0  0  0  0  0  0  0  0  0  0
  1  2  1  0  0  0  0
  1  3  1  0  0  0  0
  1  4  1  0  0  0  0
  4  5  1  0  0  0  0
  4  6  1  0  0  0  0
  4  7  1  0  0  0  0
  7  8  1  0  0  0  0
  7  9  1  0  0  0  0
  7 10  1  0  0  0  0
 10 11  1  0  0  0  0
 10 12  1  0  0  0  0
 10 13  1  0  0  0  0
 13 14  1  0  0  0  0
 13 15  1  0  0  0  0
 13 16  1  0  0  0  0
 16 17  1  0  0  0  0
 16 18  1  0  0  0  0
 16 19  1  0  0  0  0
 19 20  1  0  0  0  0
 19 21  1  0  0  0  0
 19 22  1  0  0  0  0
  1 23  1  0  0  0  0
 23 24  1  0  0  0  0
 23 25  1  0  0  0  0
 23 26  1  0  0  0  0
M  END
> <VConfSearch Rank>
193

> <Conf_Id>
126

> <Delta U+W>
1.519

> <U+W>
23.361

> <U>
72.579

> <W>
-49.218

> <W(PB)>
-51.496

> <W(SA)>
2.279

> <Valence>
2.678

> <Coulomb>
69.622

> <VdW>
0.279

> <VdW6>
-7.328

> <VdW12>
7.608

> <Bond>
0.212

> <Angle>
0.911

> <Pdih>
1.555

> <Idih>
0.000

> <Tether>
0.000

$$$$
VeraChem MOL file


 26 25  0  0  0  0  0  0  0  0999 V2000     
   17.9212   18.3923   22.4719 N   0  3  0  0  0  0  0  0  0  0  0  0
   18.8026   18.2702   21.9510 H   0  0  0  0  0  0  0  0  0  0  0  0
   17.3852   19.1010   21.9475 H   0  0  0  0  0  0  0  0  0  0  0  0
   18.2132   18.8912   23.8735 C   0  0  0  0  0  0  0  0  0  0  0  0
   18.7768   18.1151   24.3965 H   0  0  0  0  0  0  0  0  0  0  0  0
   17.2561   19.0180   24.3858 H   0  0  0  0  0  0  0  0  0  0  0  0
   18.9948   20.2208   23.9128 C   0  0  0  0  0  0  0  0  0  0  0  0
   18.3920   21.0049   23.4357 H   0  0  0  0  0  0  0  0  0  0  0  0
   19.1177   20.5255   24.9606 H   0  0  0  0  0  0  0  0  0  0  0  0
   20.3860   20.1602   23.2324 C   0  0  0  0  0  0  0  0  0  0  0  0
   20.8371   21.1591   23.2925 H   0  0  0  0  0  0  0  0  0  0  0  0
   20.2706   19.9417   22.1625 H   0  0  0  0  0  0  0  0  0  0  0  0
   21.3378   19.1220   23.8800 C   0  0  0  0  0  0  0  0  0  0  0  0
   21.4746   19.3586   24.9442 H   0  0  0  0  0  0  0  0  0  0  0  0
   20.8774   18.1260   23.8420 H   0  0  0  0  0  0  0  0  0  0  0  0
   22.7203   19.0380   23.1884 C   0  0  0  0  0  0  0  0  0  0  0  0
   22.5906   18.7895   22.1258 H   0  0  0  0  0  0  0  0  0  0  0  0
   23.2848   18.2053   23.6311 H   0  0  0  0  0  0  0  0  0  0  0  0
   23.5571   20.3309   23.3221 C   0  0  0  0  0  0  0  0  0  0  0  0
   23.6734   20.6193   24.3748 H   0  0  0  0  0  0  0  0  0  0  0  0
   23.0959   21.1684   22.7845 H   0  0  0  0  0  0  0  0  0  0  0  0
   24.5606   20.1836   22.9022 H   0  0  0  0  0  0  0  0  0  0  0  0
   17.1529   17.0798   22.5377 C   0  0  0  0  0  0  0  0  0  0  0  0
   17.7536   16.3383   23.0691 H   0  0  0  0  0  0  0  0  0  0  0  0
   16.2112   17.2414   23.0669 H   0  0  0  0  0  0  0  0  0  0  0  0
   16.9504   16.7318   21.5224 H   0  0  0  0  0  0  0  0  0  0  0  0
  1  2  1  0  0  0  0
  1  3  1  0  0  0  0
  1  4  1  0  0  0  0
  4  5  1  0  0  0  0
  4  6  1  0  0  0  0
  4  7  1  0  0  0  0
  7  8  1  0  0  0  0
  7  9  1  0  0  0  0
  7 10  1  0  0  0  0
 10 11  1  0  0  0  0
 10 12  1  0  0  0  0
 10 13  1  0  0  0  0
 13 14  1  0  0  0  0
 13 15  1  0  0  0  0
 13 16  1  0  0  0  0
 16 17  1  0  0  0  0
 16 18  1  0  0  0  0
 16 19  1  0  0  0  0
 19 20  1  0  0  0  0
 19 21  1  0  0  0  0
 19 22  1  0  0  0  0
  1 23  1  0  0  0  0
 23 24  1  0  0  0  0
 23 25  1  0  0  0  0
 23 26  1  0  0  0  0
M  END
> <VConfSearch Rank>
194

> <Conf_Id>
134

> <Delta U+W>
1.464

> <U+W>
23.306

> <U>
72.579

> <W>
-49.273

> <W(PB)>
-51.540

> <W(SA)>
2.267

> <Valence>
2.677

> <Coulomb>
69.622

> <VdW>
0.280

> <VdW6>
-7.328

> <VdW12>
7.608

> <Bond>
0.212

> <Angle>
0.911

> <Pdih>
1.555

> <Idih>
0.000

> <Tether>
0.000

$$$$
VeraChem MOL file


 26 25  0  0  0  0  0  0  0  0999 V2000     
   20.8105   21.7437   23.8444 N   0  3  0  0  0  0  0  0  0  0  0  0
   21.2182   21.7367   22.8965 H   0  0  0  0  0  0  0  0  0  0  0  0
   21.6079   21.6190   24.4873 H   0  0  0  0  0  0  0  0  0  0  0  0
   19.8293   20.5992   24.0003 C   0  0  0  0  0  0  0  0  0  0  0  0
   19.0073   20.7644   23.2993 H   0  0  0  0  0  0  0  0  0  0  0  0
   19.4284   20.6375   25.0163 H   0  0  0  0  0  0  0  0  0  0  0  0
   20.4590   19.2181   23.7437 C   0  0  0  0  0  0  0  0  0  0  0  0
   20.8740   19.1977   22.7281 H   0  0  0  0  0  0  0  0  0  0  0  0
   21.2944   19.0625   24.4392 H   0  0  0  0  0  0  0  0  0  0  0  0
   19.4203   18.0850   23.9157 C   0  0  0  0  0  0  0  0  0  0  0  0
   18.6033   18.2173   23.1938 H   0  0  0  0  0  0  0  0  0  0  0  0
   18.9604   18.1708   24.9100 H   0  0  0  0  0  0  0  0  0  0  0  0
   20.0238   16.6630   23.7781 C   0  0  0  0  0  0  0  0  0  0  0  0
   20.7595   16.5080   24.5793 H   0  0  0  0  0  0  0  0  0  0  0  0
   19.2292   15.9247   23.9539 H   0  0  0  0  0  0  0  0  0  0  0  0
   20.6978   16.3580   22.4157 C   0  0  0  0  0  0  0  0  0  0  0  0
   21.0845   15.3295   22.4399 H   0  0  0  0  0  0  0  0  0  0  0  0
   21.5744   17.0038   22.2723 H   0  0  0  0  0  0  0  0  0  0  0  0
   19.7412   16.5011   21.2102 C   0  0  0  0  0  0  0  0  0  0  0  0
   18.8468   15.8781   21.3399 H   0  0  0  0  0  0  0  0  0  0  0  0
   20.2391   16.1850   20.2845 H   0  0  0  0  0  0  0  0  0  0  0  0
   19.4193   17.5409   21.0731 H   0  0  0  0  0  0  0  0  0  0  0  0
   20.1091   23.0677   24.1141 C   0  0  0  0  0  0  0  0  0  0  0  0
   19.7152   23.0645   25.1329 H   0  0  0  0  0  0  0  0  0  0  0  0
   20.8265   23.8832   23.9986 H   0  0  0  0  0  0  0  0  0  0  0  0
   19.2910   23.1925   23.4013 H   0  0  0  0  0  0  0  0  0  0  0  0
  1  2  1  0  0  0  0
  1  3  1  0  0  0  0
  1  4  1  0  0  0  0
  4  5  1  0  0  0  0
  4  6  1  0  0  0  0
  4  7  1  0  0  0  0
  7  8  1  0  0  0  0
  7  9  1  0  0  0  0
  7 10  1  0  0  0  0
 10 11  1  0  0  0  0
 10 12  1  0  0  0  0
 10 13  1  0  0  0  0
 13 14  1  0  0  0  0
 13 15  1  0  0  0  0
 13 16  1  0  0  0  0
 16 17  1  0  0  0  0
 16 18  1  0  0  0  0
 16 19  1  0  0  0  0
 19 20  1  0  0  0  0
 19 21  1  0  0  0  0
 19 22  1  0  0  0  0
  1 23  1  0  0  0  0
 23 24  1  0  0  0  0
 23 25  1  0  0  0  0
 23 26  1  0  0  0  0
M  END
> <VConfSearch Rank>
195

> <Conf_Id>
30

> <Delta U+W>
0.910

> <U+W>
22.752

> <U>
71.870

> <W>
-49.118

> <W(PB)>
-51.409

> <W(SA)>
2.290

> <Valence>
2.682

> <Coulomb>
68.933

> <VdW>
0.255

> <VdW6>
-6.833

> <VdW12>
7.088

> <Bond>
0.205

> <Angle>
1.003

> <Pdih>
1.473

> <Idih>
0.000

> <Tether>
0.000

$$$$
VeraChem MOL file


 26 25  0  0  0  0  0  0  0  0999 V2000     
   21.8517   19.2197   25.3962 N   0  3  0  0  0  0  0  0  0  0  0  0
   22.3927   18.3553   25.2383 H   0  0  0  0  0  0  0  0  0  0  0  0
   21.0697   18.9458   26.0111 H   0  0  0  0  0  0  0  0  0  0  0  0
   21.3208   19.7519   24.0802 C   0  0  0  0  0  0  0  0  0  0  0  0
   22.1776   20.0215   23.4576 H   0  0  0  0  0  0  0  0  0  0  0  0
   20.7495   20.6593   24.2914 H   0  0  0  0  0  0  0  0  0  0  0  0
   20.4321   18.7435   23.3297 C   0  0  0  0  0  0  0  0  0  0  0  0
   21.0046   17.8273   23.1333 H   0  0  0  0  0  0  0  0  0  0  0  0
   19.5859   18.4665   23.9710 H   0  0  0  0  0  0  0  0  0  0  0  0
   19.9166   19.3315   21.9952 C   0  0  0  0  0  0  0  0  0  0  0  0
   20.7753   19.6744   21.4013 H   0  0  0  0  0  0  0  0  0  0  0  0
   19.3109   20.2261   22.1926 H   0  0  0  0  0  0  0  0  0  0  0  0
   19.1063   18.3206   21.1429 C   0  0  0  0  0  0  0  0  0  0  0  0
   18.8162   18.8067   20.2012 H   0  0  0  0  0  0  0  0  0  0  0  0
   19.7620   17.4857   20.8596 H   0  0  0  0  0  0  0  0  0  0  0  0
   17.8358   17.7489   21.8229 C   0  0  0  0  0  0  0  0  0  0  0  0
   18.1114   17.1519   22.7025 H   0  0  0  0  0  0  0  0  0  0  0  0
   17.3514   17.0500   21.1267 H   0  0  0  0  0  0  0  0  0  0  0  0
   16.8134   18.8348   22.2286 C   0  0  0  0  0  0  0  0  0  0  0  0
   17.2121   19.4898   23.0132 H   0  0  0  0  0  0  0  0  0  0  0  0
   15.8966   18.3736   22.6179 H   0  0  0  0  0  0  0  0  0  0  0  0
   16.5366   19.4574   21.3680 H   0  0  0  0  0  0  0  0  0  0  0  0
   22.7168   20.2754   26.0706 C   0  0  0  0  0  0  0  0  0  0  0  0
   23.0927   19.8795   27.0167 H   0  0  0  0  0  0  0  0  0  0  0  0
   23.5549   20.5247   25.4161 H   0  0  0  0  0  0  0  0  0  0  0  0
   22.1148   21.1675   26.2572 H   0  0  0  0  0  0  0  0  0  0  0  0
  1  2  1  0  0  0  0
  1  3  1  0  0  0  0
  1  4  1  0  0  0  0
  4  5  1  0  0  0  0
  4  6  1  0  0  0  0
  4  7  1  0  0  0  0
  7  8  1  0  0  0  0
  7  9  1  0  0  0  0
  7 10  1  0  0  0  0
 10 11  1  0  0  0  0
 10 12  1  0  0  0  0
 10 13  1  0  0  0  0
 13 14  1  0  0  0  0
 13 15  1  0  0  0  0
 13 16  1  0  0  0  0
 16 17  1  0  0  0  0
 16 18  1  0  0  0  0
 16 19  1  0  0  0  0
 19 20  1  0  0  0  0
 19 21  1  0  0  0  0
 19 22  1  0  0  0  0
  1 23  1  0  0  0  0
 23 24  1  0  0  0  0
 23 25  1  0  0  0  0
 23 26  1  0  0  0  0
M  END
> <VConfSearch Rank>
196

> <Conf_Id>
29

> <Delta U+W>
0.886

> <U+W>
22.729

> <U>
71.870

> <W>
-49.141

> <W(PB)>
-51.404

> <W(SA)>
2.262

> <Valence>
2.682

> <Coulomb>
68.933

> <VdW>
0.255

> <VdW6>
-6.833

> <VdW12>
7.088

> <Bond>
0.205

> <Angle>
1.003

> <Pdih>
1.473

> <Idih>
0.000

> <Tether>
0.000

$$$$
VeraChem MOL file


 26 25  0  0  0  0  0  0  0  0999 V2000     
   21.2682   17.4142   21.7018 N   0  3  0  0  0  0  0  0  0  0  0  0
   20.9934   17.4400   20.7075 H   0  0  0  0  0  0  0  0  0  0  0  0
   20.6823   16.6806   22.1297 H   0  0  0  0  0  0  0  0  0  0  0  0
   20.9910   18.7529   22.3554 C   0  0  0  0  0  0  0  0  0  0  0  0
   21.6193   19.5018   21.8669 H   0  0  0  0  0  0  0  0  0  0  0  0
   21.2919   18.6808   23.4034 H   0  0  0  0  0  0  0  0  0  0  0  0
   19.5133   19.1795   22.2679 C   0  0  0  0  0  0  0  0  0  0  0  0
   19.2110   19.2143   21.2129 H   0  0  0  0  0  0  0  0  0  0  0  0
   18.8801   18.4207   22.7450 H   0  0  0  0  0  0  0  0  0  0  0  0
   19.2530   20.5654   22.9088 C   0  0  0  0  0  0  0  0  0  0  0  0
   18.1902   20.8187   22.7973 H   0  0  0  0  0  0  0  0  0  0  0  0
   19.8001   21.3286   22.3381 H   0  0  0  0  0  0  0  0  0  0  0  0
   19.6597   20.6790   24.4030 C   0  0  0  0  0  0  0  0  0  0  0  0
   20.7510   20.5918   24.4919 H   0  0  0  0  0  0  0  0  0  0  0  0
   19.4156   21.6902   24.7567 H   0  0  0  0  0  0  0  0  0  0  0  0
   18.9956   19.6452   25.3478 C   0  0  0  0  0  0  0  0  0  0  0  0
   19.3663   19.8149   26.3683 H   0  0  0  0  0  0  0  0  0  0  0  0
   19.3104   18.6279   25.0795 H   0  0  0  0  0  0  0  0  0  0  0  0
   17.4522   19.7280   25.3593 C   0  0  0  0  0  0  0  0  0  0  0  0
   17.0355   19.0375   26.1038 H   0  0  0  0  0  0  0  0  0  0  0  0
   17.0273   19.4585   24.3845 H   0  0  0  0  0  0  0  0  0  0  0  0
   17.1134   20.7406   25.6139 H   0  0  0  0  0  0  0  0  0  0  0  0
   22.7440   17.0668   21.8392 C   0  0  0  0  0  0  0  0  0  0  0  0
   22.9304   16.1010   21.3642 H   0  0  0  0  0  0  0  0  0  0  0  0
   23.3418   17.8395   21.3508 H   0  0  0  0  0  0  0  0  0  0  0  0
   23.0032   17.0129   22.8989 H   0  0  0  0  0  0  0  0  0  0  0  0
  1  2  1  0  0  0  0
  1  3  1  0  0  0  0
  1  4  1  0  0  0  0
  4  5  1  0  0  0  0
  4  6  1  0  0  0  0
  4  7  1  0  0  0  0
  7  8  1  0  0  0  0
  7  9  1  0  0  0  0
  7 10  1  0  0  0  0
 10 11  1  0  0  0  0
 10 12  1  0  0  0  0
 10 13  1  0  0  0  0
 13 14  1  0  0  0  0
 13 15  1  0  0  0  0
 13 16  1  0  0  0  0
 16 17  1  0  0  0  0
 16 18  1  0  0  0  0
 16 19  1  0  0  0  0
 19 20  1  0  0  0  0
 19 21  1  0  0  0  0
 19 22  1  0  0  0  0
  1 23  1  0  0  0  0
 23 24  1  0  0  0  0
 23 25  1  0  0  0  0
 23 26  1  0  0  0  0
M  END
> <VConfSearch Rank>
197

> <Conf_Id>
82

> <Delta U+W>
1.026

> <U+W>
22.868

> <U>
72.455

> <W>
-49.586

> <W(PB)>
-51.821

> <W(SA)>
2.234

> <Valence>
2.908

> <Coulomb>
69.435

> <VdW>
0.112

> <VdW6>
-7.765

> <VdW12>
7.877

> <Bond>
0.233

> <Angle>
1.170

> <Pdih>
1.506

> <Idih>
0.000

> <Tether>
0.000

$$$$
VeraChem MOL file


 26 25  0  0  0  0  0  0  0  0999 V2000     
   22.4185   18.4687   22.2041 N   0  3  0  0  0  0  0  0  0  0  0  0
   21.8579   17.9618   21.5017 H   0  0  0  0  0  0  0  0  0  0  0  0
   22.9716   17.7448   22.6886 H   0  0  0  0  0  0  0  0  0  0  0  0
   21.5090   19.1771   23.1876 C   0  0  0  0  0  0  0  0  0  0  0  0
   20.9417   19.9295   22.6346 H   0  0  0  0  0  0  0  0  0  0  0  0
   22.1392   19.6891   23.9192 H   0  0  0  0  0  0  0  0  0  0  0  0
   20.5391   18.2263   23.9145 C   0  0  0  0  0  0  0  0  0  0  0  0
   19.9161   17.7004   23.1798 H   0  0  0  0  0  0  0  0  0  0  0  0
   21.1176   17.4534   24.4376 H   0  0  0  0  0  0  0  0  0  0  0  0
   19.6412   18.9599   24.9416 C   0  0  0  0  0  0  0  0  0  0  0  0
   20.2769   19.3741   25.7364 H   0  0  0  0  0  0  0  0  0  0  0  0
   18.9893   18.2276   25.4363 H   0  0  0  0  0  0  0  0  0  0  0  0
   18.7781   20.1072   24.3501 C   0  0  0  0  0  0  0  0  0  0  0  0
   18.1721   20.5415   25.1572 H   0  0  0  0  0  0  0  0  0  0  0  0
   19.4346   20.9178   24.0063 H   0  0  0  0  0  0  0  0  0  0  0  0
   17.8399   19.6946   23.1873 C   0  0  0  0  0  0  0  0  0  0  0  0
   18.4296   19.3552   22.3253 H   0  0  0  0  0  0  0  0  0  0  0  0
   17.2936   20.5848   22.8456 H   0  0  0  0  0  0  0  0  0  0  0  0
   16.8174   18.6048   23.5818 C   0  0  0  0  0  0  0  0  0  0  0  0
   17.3131   17.6575   23.8277 H   0  0  0  0  0  0  0  0  0  0  0  0
   16.1242   18.4096   22.7534 H   0  0  0  0  0  0  0  0  0  0  0  0
   16.2230   18.9173   24.4502 H   0  0  0  0  0  0  0  0  0  0  0  0
   23.3357   19.4781   21.5278 C   0  0  0  0  0  0  0  0  0  0  0  0
   23.9416   19.9778   22.2869 H   0  0  0  0  0  0  0  0  0  0  0  0
   23.9856   18.9553   20.8225 H   0  0  0  0  0  0  0  0  0  0  0  0
   22.7293   20.2139   20.9949 H   0  0  0  0  0  0  0  0  0  0  0  0
  1  2  1  0  0  0  0
  1  3  1  0  0  0  0
  1  4  1  0  0  0  0
  4  5  1  0  0  0  0
  4  6  1  0  0  0  0
  4  7  1  0  0  0  0
  7  8  1  0  0  0  0
  7  9  1  0  0  0  0
  7 10  1  0  0  0  0
 10 11  1  0  0  0  0
 10 12  1  0  0  0  0
 10 13  1  0  0  0  0
 13 14  1  0  0  0  0
 13 15  1  0  0  0  0
 13 16  1  0  0  0  0
 16 17  1  0  0  0  0
 16 18  1  0  0  0  0
 16 19  1  0  0  0  0
 19 20  1  0  0  0  0
 19 21  1  0  0  0  0
 19 22  1  0  0  0  0
  1 23  1  0  0  0  0
 23 24  1  0  0  0  0
 23 25  1  0  0  0  0
 23 26  1  0  0  0  0
M  END
> <VConfSearch Rank>
198

> <Conf_Id>
71

> <Delta U+W>
1.096

> <U+W>
22.938

> <U>
72.455

> <W>
-49.517

> <W(PB)>
-51.795

> <W(SA)>
2.278

> <Valence>
2.908

> <Coulomb>
69.435

> <VdW>
0.112

> <VdW6>
-7.766

> <VdW12>
7.877

> <Bond>
0.233

> <Angle>
1.170

> <Pdih>
1.506

> <Idih>
0.000

> <Tether>
0.000

$$$$
VeraChem MOL file


 26 25  0  0  0  0  0  0  0  0999 V2000     
   20.0393   20.3270   21.1361 N   0  3  0  0  0  0  0  0  0  0  0  0
   19.5486   19.4319   21.2803 H   0  0  0  0  0  0  0  0  0  0  0  0
   20.5149   20.2308   20.2249 H   0  0  0  0  0  0  0  0  0  0  0  0
   21.0726   20.5351   22.2319 C   0  0  0  0  0  0  0  0  0  0  0  0
   21.5552   21.4994   22.0541 H   0  0  0  0  0  0  0  0  0  0  0  0
   21.8307   19.7565   22.1178 H   0  0  0  0  0  0  0  0  0  0  0  0
   20.5177   20.4929   23.6739 C   0  0  0  0  0  0  0  0  0  0  0  0
   21.3496   20.6462   24.3740 H   0  0  0  0  0  0  0  0  0  0  0  0
   19.8364   21.3399   23.8259 H   0  0  0  0  0  0  0  0  0  0  0  0
   19.7839   19.1762   24.0337 C   0  0  0  0  0  0  0  0  0  0  0  0
   18.9025   19.0530   23.3905 H   0  0  0  0  0  0  0  0  0  0  0  0
   19.4028   19.2688   25.0589 H   0  0  0  0  0  0  0  0  0  0  0  0
   20.6910   17.9236   23.9292 C   0  0  0  0  0  0  0  0  0  0  0  0
   21.0972   17.8462   22.9122 H   0  0  0  0  0  0  0  0  0  0  0  0
   21.5549   18.0356   24.5987 H   0  0  0  0  0  0  0  0  0  0  0  0
   19.9547   16.6011   24.2541 C   0  0  0  0  0  0  0  0  0  0  0  0
   20.6323   15.7611   24.0464 H   0  0  0  0  0  0  0  0  0  0  0  0
   19.0967   16.4770   23.5786 H   0  0  0  0  0  0  0  0  0  0  0  0
   19.4794   16.5038   25.7219 C   0  0  0  0  0  0  0  0  0  0  0  0
   18.7031   17.2457   25.9455 H   0  0  0  0  0  0  0  0  0  0  0  0
   20.3138   16.6574   26.4184 H   0  0  0  0  0  0  0  0  0  0  0  0
   19.0538   15.5120   25.9225 H   0  0  0  0  0  0  0  0  0  0  0  0
   19.0490   21.4846   21.0854 C   0  0  0  0  0  0  0  0  0  0  0  0
   18.3429   21.3155   20.2694 H   0  0  0  0  0  0  0  0  0  0  0  0
   18.5092   21.5395   22.0329 H   0  0  0  0  0  0  0  0  0  0  0  0
   19.5940   22.4155   20.9145 H   0  0  0  0  0  0  0  0  0  0  0  0
  1  2  1  0  0  0  0
  1  3  1  0  0  0  0
  1  4  1  0  0  0  0
  4  5  1  0  0  0  0
  4  6  1  0  0  0  0
  4  7  1  0  0  0  0
  7  8  1  0  0  0  0
  7  9  1  0  0  0  0
  7 10  1  0  0  0  0
 10 11  1  0  0  0  0
 10 12  1  0  0  0  0
 10 13  1  0  0  0  0
 13 14  1  0  0  0  0
 13 15  1  0  0  0  0
 13 16  1  0  0  0  0
 16 17  1  0  0  0  0
 16 18  1  0  0  0  0
 16 19  1  0  0  0  0
 19 20  1  0  0  0  0
 19 21  1  0  0  0  0
 19 22  1  0  0  0  0
  1 23  1  0  0  0  0
 23 24  1  0  0  0  0
 23 25  1  0  0  0  0
 23 26  1  0  0  0  0
M  END
> <VConfSearch Rank>
199

> <Conf_Id>
84

> <Delta U+W>
1.456

> <U+W>
23.298

> <U>
73.042

> <W>
-49.744

> <W(PB)>
-51.966

> <W(SA)>
2.222

> <Valence>
2.938

> <Coulomb>
69.625

> <VdW>
0.478

> <VdW6>
-8.182

> <VdW12>
8.660

> <Bond>
0.253

> <Angle>
1.038

> <Pdih>
1.647

> <Idih>
0.000

> <Tether>
0.000

$$$$
VeraChem MOL file


 26 25  0  0  0  0  0  0  0  0999 V2000     
   22.0366   20.2523   23.4984 N   0  3  0  0  0  0  0  0  0  0  0  0
   21.4092   20.3388   22.6847 H   0  0  0  0  0  0  0  0  0  0  0  0
   22.9276   19.8906   23.1242 H   0  0  0  0  0  0  0  0  0  0  0  0
   21.4550   19.2726   24.4987 C   0  0  0  0  0  0  0  0  0  0  0  0
   20.5181   19.6909   24.8740 H   0  0  0  0  0  0  0  0  0  0  0  0
   22.1537   19.2005   25.3361 H   0  0  0  0  0  0  0  0  0  0  0  0
   21.2028   17.8651   23.9195 C   0  0  0  0  0  0  0  0  0  0  0  0
   22.1586   17.4336   23.5939 H   0  0  0  0  0  0  0  0  0  0  0  0
   20.8327   17.2155   24.7238 H   0  0  0  0  0  0  0  0  0  0  0  0
   20.1992   17.8382   22.7390 C   0  0  0  0  0  0  0  0  0  0  0  0
   20.0974   16.8008   22.3915 H   0  0  0  0  0  0  0  0  0  0  0  0
   20.6048   18.4045   21.8900 H   0  0  0  0  0  0  0  0  0  0  0  0
   18.8014   18.3868   23.1143 C   0  0  0  0  0  0  0  0  0  0  0  0
   18.4101   17.8332   23.9791 H   0  0  0  0  0  0  0  0  0  0  0  0
   18.8790   19.4389   23.4191 H   0  0  0  0  0  0  0  0  0  0  0  0
   17.8056   18.2736   21.9384 C   0  0  0  0  0  0  0  0  0  0  0  0
   17.7115   17.2225   21.6311 H   0  0  0  0  0  0  0  0  0  0  0  0
   18.1929   18.8240   21.0695 H   0  0  0  0  0  0  0  0  0  0  0  0
   16.4128   18.8234   22.3132 C   0  0  0  0  0  0  0  0  0  0  0  0
   15.9841   18.2699   23.1588 H   0  0  0  0  0  0  0  0  0  0  0  0
   15.7199   18.7338   21.4665 H   0  0  0  0  0  0  0  0  0  0  0  0
   16.4685   19.8838   22.5918 H   0  0  0  0  0  0  0  0  0  0  0  0
   22.2441   21.6075   24.1598 C   0  0  0  0  0  0  0  0  0  0  0  0
   22.9345   21.4955   24.9987 H   0  0  0  0  0  0  0  0  0  0  0  0
   22.6620   22.3029   23.4285 H   0  0  0  0  0  0  0  0  0  0  0  0
   21.2833   21.9828   24.5188 H   0  0  0  0  0  0  0  0  0  0  0  0
  1  2  1  0  0  0  0
  1  3  1  0  0  0  0
  1  4  1  0  0  0  0
  4  5  1  0  0  0  0
  4  6  1  0  0  0  0
  4  7  1  0  0  0  0
  7  8  1  0  0  0  0
  7  9  1  0  0  0  0
  7 10  1  0  0  0  0
 10 11  1  0  0  0  0
 10 12  1  0  0  0  0
 10 13  1  0  0  0  0
 13 14  1  0  0  0  0
 13 15  1  0  0  0  0
 13 16  1  0  0  0  0
 16 17  1  0  0  0  0
 16 18  1  0  0  0  0
 16 19  1  0  0  0  0
 19 20  1  0  0  0  0
 19 21  1  0  0  0  0
 19 22  1  0  0  0  0
  1 23  1  0  0  0  0
 23 24  1  0  0  0  0
 23 25  1  0  0  0  0
 23 26  1  0  0  0  0
M  END
> <VConfSearch Rank>
200

> <Conf_Id>
73

> <Delta U+W>
0.884

> <U+W>
22.726

> <U>
71.905

> <W>
-49.179

> <W(PB)>
-51.494

> <W(SA)>
2.315

> <Valence>
2.125

> <Coulomb>
69.686

> <VdW>
0.093

> <VdW6>
-6.766

> <VdW12>
6.859

> <Bond>
0.169

> <Angle>
0.621

> <Pdih>
1.336

> <Idih>
0.000

> <Tether>
0.000

$$$$
VeraChem MOL file


 26 25  0  0  0  0  0  0  0  0999 V2000     
   22.2406   19.1009   25.6645 N   0  3  0  0  0  0  0  0  0  0  0  0
   22.4391   20.1122   25.6138 H   0  0  0  0  0  0  0  0  0  0  0  0
   22.9903   18.6464   25.1201 H   0  0  0  0  0  0  0  0  0  0  0  0
   20.8899   18.8014   25.0456 C   0  0  0  0  0  0  0  0  0  0  0  0
   20.1275   19.3058   25.6446 H   0  0  0  0  0  0  0  0  0  0  0  0
   20.7224   17.7234   25.1117 H   0  0  0  0  0  0  0  0  0  0  0  0
   20.7789   19.2538   23.5783 C   0  0  0  0  0  0  0  0  0  0  0  0
   20.9642   20.3344   23.5144 H   0  0  0  0  0  0  0  0  0  0  0  0
   21.5571   18.7573   22.9833 H   0  0  0  0  0  0  0  0  0  0  0  0
   19.3878   18.9288   22.9903 C   0  0  0  0  0  0  0  0  0  0  0  0
   18.6117   19.4228   23.5914 H   0  0  0  0  0  0  0  0  0  0  0  0
   19.2039   17.8476   23.0612 H   0  0  0  0  0  0  0  0  0  0  0  0
   19.2646   19.3785   21.5166 C   0  0  0  0  0  0  0  0  0  0  0  0
   19.4484   20.4596   21.4455 H   0  0  0  0  0  0  0  0  0  0  0  0
   20.0405   18.8845   20.9153 H   0  0  0  0  0  0  0  0  0  0  0  0
   17.8733   19.0532   20.9288 C   0  0  0  0  0  0  0  0  0  0  0  0
   17.0935   19.5472   21.5254 H   0  0  0  0  0  0  0  0  0  0  0  0
   17.6856   17.9723   20.9953 H   0  0  0  0  0  0  0  0  0  0  0  0
   17.7540   19.5038   19.4572 C   0  0  0  0  0  0  0  0  0  0  0  0
   16.7599   19.2645   19.0578 H   0  0  0  0  0  0  0  0  0  0  0  0
   18.4996   19.0001   18.8282 H   0  0  0  0  0  0  0  0  0  0  0  0
   17.9029   20.5873   19.3626 H   0  0  0  0  0  0  0  0  0  0  0  0
   22.2656   18.6234   27.1099 C   0  0  0  0  0  0  0  0  0  0  0  0
   22.0863   17.5463   27.1355 H   0  0  0  0  0  0  0  0  0  0  0  0
   23.2433   18.8450   27.5435 H   0  0  0  0  0  0  0  0  0  0  0  0
   21.4863   19.1418   27.6729 H   0  0  0  0  0  0  0  0  0  0  0  0
  1  2  1  0  0  0  0
  1  3  1  0  0  0  0
  1  4  1  0  0  0  0
  4  5  1  0  0  0  0
  4  6  1  0  0  0  0
  4  7  1  0  0  0  0
  7  8  1  0  0  0  0
  7  9  1  0  0  0  0
  7 10  1  0  0  0  0
 10 11  1  0  0  0  0
 10 12  1  0  0  0  0
 10 13  1  0  0  0  0
 13 14  1  0  0  0  0
 13 15  1  0  0  0  0
 13 16  1  0  0  0  0
 16 17  1  0  0  0  0
 16 18  1  0  0  0  0
 16 19  1  0  0  0  0
 19 20  1  0  0  0  0
 19 21  1  0  0  0  0
 19 22  1  0  0  0  0
  1 23  1  0  0  0  0
 23 24  1  0  0  0  0
 23 25  1  0  0  0  0
 23 26  1  0  0  0  0
M  END
> <VConfSearch Rank>
201

> <Conf_Id>
11

> <Delta U+W>
0.000

> <U+W>
21.842

> <U>
70.357

> <W>
-48.515

> <W(PB)>
-50.856

> <W(SA)>
2.341

> <Valence>
1.714

> <Coulomb>
68.480

> <VdW>
0.163

> <VdW6>
-5.268

> <VdW12>
5.431

> <Bond>
0.126

> <Angle>
0.350

> <Pdih>
1.238

> <Idih>
0.000

> <Tether>
0.000

$$$$
VeraChem MOL file


 26 25  0  0  0  0  0  0  0  0999 V2000     
   18.3905   21.8897   24.1408 N   0  3  0  0  0  0  0  0  0  0  0  0
   17.5891   22.4538   23.8160 H   0  0  0  0  0  0  0  0  0  0  0  0
   19.2153   22.4934   23.9998 H   0  0  0  0  0  0  0  0  0  0  0  0
   18.5064   20.6350   23.2914 C   0  0  0  0  0  0  0  0  0  0  0  0
   18.4581   20.9462   22.2448 H   0  0  0  0  0  0  0  0  0  0  0  0
   17.6366   20.0067   23.4987 H   0  0  0  0  0  0  0  0  0  0  0  0
   19.8016   19.8280   23.5147 C   0  0  0  0  0  0  0  0  0  0  0  0
   20.6697   20.4806   23.3526 H   0  0  0  0  0  0  0  0  0  0  0  0
   19.8486   19.4818   24.5553 H   0  0  0  0  0  0  0  0  0  0  0  0
   19.8795   18.6131   22.5638 C   0  0  0  0  0  0  0  0  0  0  0  0
   19.8305   18.9596   21.5220 H   0  0  0  0  0  0  0  0  0  0  0  0
   19.0059   17.9660   22.7246 H   0  0  0  0  0  0  0  0  0  0  0  0
   21.1743   17.7959   22.7763 C   0  0  0  0  0  0  0  0  0  0  0  0
   22.0479   18.4429   22.6157 H   0  0  0  0  0  0  0  0  0  0  0  0
   21.2234   17.4490   23.8178 H   0  0  0  0  0  0  0  0  0  0  0  0
   21.2519   16.5809   21.8250 C   0  0  0  0  0  0  0  0  0  0  0  0
   21.2058   16.9228   20.7815 H   0  0  0  0  0  0  0  0  0  0  0  0
   20.3812   15.9291   21.9835 H   0  0  0  0  0  0  0  0  0  0  0  0
   22.5460   15.7673   22.0402 C   0  0  0  0  0  0  0  0  0  0  0  0
   22.5829   14.9094   21.3562 H   0  0  0  0  0  0  0  0  0  0  0  0
   22.6045   15.3822   23.0666 H   0  0  0  0  0  0  0  0  0  0  0  0
   23.4354   16.3837   21.8552 H   0  0  0  0  0  0  0  0  0  0  0  0
   18.2165   21.5448   25.6156 C   0  0  0  0  0  0  0  0  0  0  0  0
   19.0977   21.0048   25.9675 H   0  0  0  0  0  0  0  0  0  0  0  0
   18.0998   22.4684   26.1870 H   0  0  0  0  0  0  0  0  0  0  0  0
   17.3273   20.9221   25.7359 H   0  0  0  0  0  0  0  0  0  0  0  0
  1  2  1  0  0  0  0
  1  3  1  0  0  0  0
  1  4  1  0  0  0  0
  4  5  1  0  0  0  0
  4  6  1  0  0  0  0
  4  7  1  0  0  0  0
  7  8  1  0  0  0  0
  7  9  1  0  0  0  0
  7 10  1  0  0  0  0
 10 11  1  0  0  0  0
 10 12  1  0  0  0  0
 10 13  1  0  0  0  0
 13 14  1  0  0  0  0
 13 15  1  0  0  0  0
 13 16  1  0  0  0  0
 16 17  1  0  0  0  0
 16 18  1  0  0  0  0
 16 19  1  0  0  0  0
 19 20  1  0  0  0  0
 19 21  1  0  0  0  0
 19 22  1  0  0  0  0
  1 23  1  0  0  0  0
 23 24  1  0  0  0  0
 23 25  1  0  0  0  0
 23 26  1  0  0  0  0
M  END
> <VConfSearch Rank>
202

> <Conf_Id>
102

> <Delta U+W>
0.121

> <U+W>
21.963

> <U>
70.745

> <W>
-48.782

> <W(PB)>
-51.111

> <W(SA)>
2.329

> <Valence>
1.993

> <Coulomb>
68.323

> <VdW>
0.429

> <VdW6>
-5.973

> <VdW12>
6.402

> <Bond>
0.161

> <Angle>
0.472

> <Pdih>
1.360

> <Idih>
0.000

> <Tether>
0.000

$$$$
VeraChem MOL file


 26 25  0  0  0  0  0  0  0  0999 V2000     
   18.2820   16.2193   23.0618 N   0  3  0  0  0  0  0  0  0  0  0  0
   19.0492   15.6630   22.6539 H   0  0  0  0  0  0  0  0  0  0  0  0
   17.4285   15.8835   22.5877 H   0  0  0  0  0  0  0  0  0  0  0  0
   18.4843   17.6947   22.7592 C   0  0  0  0  0  0  0  0  0  0  0  0
   17.6757   18.2509   23.2400 H   0  0  0  0  0  0  0  0  0  0  0  0
   18.3862   17.8205   21.6779 H   0  0  0  0  0  0  0  0  0  0  0  0
   19.8479   18.2590   23.2074 C   0  0  0  0  0  0  0  0  0  0  0  0
   19.9476   18.1678   24.2967 H   0  0  0  0  0  0  0  0  0  0  0  0
   20.6537   17.6630   22.7590 H   0  0  0  0  0  0  0  0  0  0  0  0
   20.0068   19.7401   22.7980 C   0  0  0  0  0  0  0  0  0  0  0  0
   19.1948   20.3319   23.2433 H   0  0  0  0  0  0  0  0  0  0  0  0
   19.9051   19.8316   21.7076 H   0  0  0  0  0  0  0  0  0  0  0  0
   21.3705   20.3181   23.2404 C   0  0  0  0  0  0  0  0  0  0  0  0
   21.4721   20.2270   24.3307 H   0  0  0  0  0  0  0  0  0  0  0  0
   22.1824   19.7262   22.7954 H   0  0  0  0  0  0  0  0  0  0  0  0
   21.5291   21.7993   22.8307 C   0  0  0  0  0  0  0  0  0  0  0  0
   20.7204   22.3962   23.2753 H   0  0  0  0  0  0  0  0  0  0  0  0
   21.4309   21.8955   21.7402 H   0  0  0  0  0  0  0  0  0  0  0  0
   22.8918   22.3731   23.2743 C   0  0  0  0  0  0  0  0  0  0  0  0
   23.0055   22.3224   24.3650 H   0  0  0  0  0  0  0  0  0  0  0  0
   22.9857   23.4249   22.9746 H   0  0  0  0  0  0  0  0  0  0  0  0
   23.7216   21.8177   22.8180 H   0  0  0  0  0  0  0  0  0  0  0  0
   18.1713   15.9728   24.5623 C   0  0  0  0  0  0  0  0  0  0  0  0
   17.3411   16.5591   24.9619 H   0  0  0  0  0  0  0  0  0  0  0  0
   17.9898   14.9100   24.7371 H   0  0  0  0  0  0  0  0  0  0  0  0
   19.1030   16.2703   25.0476 H   0  0  0  0  0  0  0  0  0  0  0  0
  1  2  1  0  0  0  0
  1  3  1  0  0  0  0
  1  4  1  0  0  0  0
  4  5  1  0  0  0  0
  4  6  1  0  0  0  0
  4  7  1  0  0  0  0
  7  8  1  0  0  0  0
  7  9  1  0  0  0  0
  7 10  1  0  0  0  0
 10 11  1  0  0  0  0
 10 12  1  0  0  0  0
 10 13  1  0  0  0  0
 13 14  1  0  0  0  0
 13 15  1  0  0  0  0
 13 16  1  0  0  0  0
 16 17  1  0  0  0  0
 16 18  1  0  0  0  0
 16 19  1  0  0  0  0
 19 20  1  0  0  0  0
 19 21  1  0  0  0  0
 19 22  1  0  0  0  0
  1 23  1  0  0  0  0
 23 24  1  0  0  0  0
 23 25  1  0  0  0  0
 23 26  1  0  0  0  0
M  END
> <VConfSearch Rank>
203

> <Conf_Id>
37

> <Delta U+W>
0.125

> <U+W>
21.967

> <U>
70.745

> <W>
-48.778

> <W(PB)>
-51.115

> <W(SA)>
2.337

> <Valence>
1.993

> <Coulomb>
68.323

> <VdW>
0.429

> <VdW6>
-5.973

> <VdW12>
6.403

> <Bond>
0.161

> <Angle>
0.472

> <Pdih>
1.360

> <Idih>
0.000

> <Tether>
0.000

$$$$
VeraChem MOL file


 26 25  0  0  0  0  0  0  0  0999 V2000     
   17.4635   17.5178   22.9058 N   0  3  0  0  0  0  0  0  0  0  0  0
   17.2213   17.4528   21.9048 H   0  0  0  0  0  0  0  0  0  0  0  0
   16.8254   18.2282   23.2969 H   0  0  0  0  0  0  0  0  0  0  0  0
   18.9032   17.9622   23.0677 C   0  0  0  0  0  0  0  0  0  0  0  0
   19.5433   17.1905   22.6329 H   0  0  0  0  0  0  0  0  0  0  0  0
   19.1138   18.0224   24.1380 H   0  0  0  0  0  0  0  0  0  0  0  0
   19.2002   19.3187   22.3996 C   0  0  0  0  0  0  0  0  0  0  0  0
   18.9394   19.2574   21.3347 H   0  0  0  0  0  0  0  0  0  0  0  0
   18.5576   20.0948   22.8364 H   0  0  0  0  0  0  0  0  0  0  0  0
   20.6837   19.7388   22.5284 C   0  0  0  0  0  0  0  0  0  0  0  0
   20.8350   20.6502   21.9354 H   0  0  0  0  0  0  0  0  0  0  0  0
   21.3235   18.9659   22.0804 H   0  0  0  0  0  0  0  0  0  0  0  0
   21.1187   19.9938   23.9942 C   0  0  0  0  0  0  0  0  0  0  0  0
   20.4920   20.7812   24.4352 H   0  0  0  0  0  0  0  0  0  0  0  0
   20.9445   19.0895   24.5920 H   0  0  0  0  0  0  0  0  0  0  0  0
   22.6106   20.3829   24.1353 C   0  0  0  0  0  0  0  0  0  0  0  0
   23.2431   19.5934   23.7060 H   0  0  0  0  0  0  0  0  0  0  0  0
   22.8622   20.4299   25.2041 H   0  0  0  0  0  0  0  0  0  0  0  0
   22.9588   21.7407   23.4835 C   0  0  0  0  0  0  0  0  0  0  0  0
   22.8446   21.7068   22.3930 H   0  0  0  0  0  0  0  0  0  0  0  0
   24.0006   22.0127   23.6966 H   0  0  0  0  0  0  0  0  0  0  0  0
   22.3171   22.5419   23.8724 H   0  0  0  0  0  0  0  0  0  0  0  0
   17.2551   16.1758   23.5939 C   0  0  0  0  0  0  0  0  0  0  0  0
   17.4851   16.2776   24.6567 H   0  0  0  0  0  0  0  0  0  0  0  0
   16.2147   15.8673   23.4695 H   0  0  0  0  0  0  0  0  0  0  0  0
   17.9165   15.4337   23.1414 H   0  0  0  0  0  0  0  0  0  0  0  0
  1  2  1  0  0  0  0
  1  3  1  0  0  0  0
  1  4  1  0  0  0  0
  4  5  1  0  0  0  0
  4  6  1  0  0  0  0
  4  7  1  0  0  0  0
  7  8  1  0  0  0  0
  7  9  1  0  0  0  0
  7 10  1  0  0  0  0
 10 11  1  0  0  0  0
 10 12  1  0  0  0  0
 10 13  1  0  0  0  0
 13 14  1  0  0  0  0
 13 15  1  0  0  0  0
 13 16  1  0  0  0  0
 16 17  1  0  0  0  0
 16 18  1  0  0  0  0
 16 19  1  0  0  0  0
 19 20  1  0  0  0  0
 19 21  1  0  0  0  0
 19 22  1  0  0  0  0
  1 23  1  0  0  0  0
 23 24  1  0  0  0  0
 23 25  1  0  0  0  0
 23 26  1  0  0  0  0
M  END
> <VConfSearch Rank>
204

> <Conf_Id>
137

> <Delta U+W>
1.038

> <U+W>
22.880

> <U>
71.810

> <W>
-48.930

> <W(PB)>
-51.257

> <W(SA)>
2.327

> <Valence>
2.568

> <Coulomb>
68.877

> <VdW>
0.364

> <VdW6>
-6.470

> <VdW12>
6.834

> <Bond>
0.191

> <Angle>
0.752

> <Pdih>
1.626

> <Idih>
0.000

> <Tether>
0.000

$$$$
VeraChem MOL file


 26 25  0  0  0  0  0  0  0  0999 V2000     
   22.4431   18.8730   25.0888 N   0  3  0  0  0  0  0  0  0  0  0  0
   21.8828   18.2300   25.6697 H   0  0  0  0  0  0  0  0  0  0  0  0
   22.3155   19.8061   25.5106 H   0  0  0  0  0  0  0  0  0  0  0  0
   21.9314   18.8697   23.6622 C   0  0  0  0  0  0  0  0  0  0  0  0
   22.0768   17.8654   23.2561 H   0  0  0  0  0  0  0  0  0  0  0  0
   22.5442   19.5666   23.0848 H   0  0  0  0  0  0  0  0  0  0  0  0
   20.4482   19.2654   23.5462 C   0  0  0  0  0  0  0  0  0  0  0  0
   19.8457   18.5706   24.1446 H   0  0  0  0  0  0  0  0  0  0  0  0
   20.3042   20.2681   23.9700 H   0  0  0  0  0  0  0  0  0  0  0  0
   19.9751   19.2494   22.0734 C   0  0  0  0  0  0  0  0  0  0  0  0
   20.0731   18.2345   21.6636 H   0  0  0  0  0  0  0  0  0  0  0  0
   20.6427   19.8875   21.4776 H   0  0  0  0  0  0  0  0  0  0  0  0
   18.5211   19.7478   21.8831 C   0  0  0  0  0  0  0  0  0  0  0  0
   18.4272   20.7694   22.2768 H   0  0  0  0  0  0  0  0  0  0  0  0
   18.3140   19.8132   20.8060 H   0  0  0  0  0  0  0  0  0  0  0  0
   17.4610   18.8346   22.5438 C   0  0  0  0  0  0  0  0  0  0  0  0
   17.6005   18.8171   23.6328 H   0  0  0  0  0  0  0  0  0  0  0  0
   17.5878   17.8021   22.1895 H   0  0  0  0  0  0  0  0  0  0  0  0
   16.0259   19.3097   22.2312 C   0  0  0  0  0  0  0  0  0  0  0  0
   15.8587   20.3300   22.6004 H   0  0  0  0  0  0  0  0  0  0  0  0
   15.2874   18.6533   22.7094 H   0  0  0  0  0  0  0  0  0  0  0  0
   15.8333   19.3015   21.1504 H   0  0  0  0  0  0  0  0  0  0  0  0
   23.9117   18.4723   25.1133 C   0  0  0  0  0  0  0  0  0  0  0  0
   24.4884   19.1852   24.5199 H   0  0  0  0  0  0  0  0  0  0  0  0
   24.2675   18.4787   26.1460 H   0  0  0  0  0  0  0  0  0  0  0  0
   24.0175   17.4697   24.6929 H   0  0  0  0  0  0  0  0  0  0  0  0
  1  2  1  0  0  0  0
  1  3  1  0  0  0  0
  1  4  1  0  0  0  0
  4  5  1  0  0  0  0
  4  6  1  0  0  0  0
  4  7  1  0  0  0  0
  7  8  1  0  0  0  0
  7  9  1  0  0  0  0
  7 10  1  0  0  0  0
 10 11  1  0  0  0  0
 10 12  1  0  0  0  0
 10 13  1  0  0  0  0
 13 14  1  0  0  0  0
 13 15  1  0  0  0  0
 13 16  1  0  0  0  0
 16 17  1  0  0  0  0
 16 18  1  0  0  0  0
 16 19  1  0  0  0  0
 19 20  1  0  0  0  0
 19 21  1  0  0  0  0
 19 22  1  0  0  0  0
  1 23  1  0  0  0  0
 23 24  1  0  0  0  0
 23 25  1  0  0  0  0
 23 26  1  0  0  0  0
M  END
> <VConfSearch Rank>
205

> <Conf_Id>
35

> <Delta U+W>
0.670

> <U+W>
22.512

> <U>
71.348

> <W>
-48.837

> <W(PB)>
-51.150

> <W(SA)>
2.313

> <Valence>
2.262

> <Coulomb>
68.807

> <VdW>
0.280

> <VdW6>
-5.915

> <VdW12>
6.195

> <Bond>
0.164

> <Angle>
0.622

> <Pdih>
1.475

> <Idih>
0.000

> <Tether>
0.000

$$$$
VeraChem MOL file


 26 25  0  0  0  0  0  0  0  0999 V2000     
   22.1956   20.5256   21.8873 N   0  3  0  0  0  0  0  0  0  0  0  0
   22.0859   21.3964   22.4300 H   0  0  0  0  0  0  0  0  0  0  0  0
   21.5466   20.6152   21.0902 H   0  0  0  0  0  0  0  0  0  0  0  0
   21.8185   19.3288   22.7372 C   0  0  0  0  0  0  0  0  0  0  0  0
   22.5226   19.2749   23.5713 H   0  0  0  0  0  0  0  0  0  0  0  0
   21.9401   18.4314   22.1254 H   0  0  0  0  0  0  0  0  0  0  0  0
   20.3787   19.3954   23.2782 C   0  0  0  0  0  0  0  0  0  0  0  0
   20.2566   20.3067   23.8786 H   0  0  0  0  0  0  0  0  0  0  0  0
   19.6829   19.4682   22.4329 H   0  0  0  0  0  0  0  0  0  0  0  0
   20.0433   18.1551   24.1398 C   0  0  0  0  0  0  0  0  0  0  0  0
   20.8001   18.0551   24.9303 H   0  0  0  0  0  0  0  0  0  0  0  0
   20.1176   17.2465   23.5261 H   0  0  0  0  0  0  0  0  0  0  0  0
   18.6457   18.2202   24.8038 C   0  0  0  0  0  0  0  0  0  0  0  0
   18.5430   17.3626   25.4831 H   0  0  0  0  0  0  0  0  0  0  0  0
   18.5774   19.1194   25.4316 H   0  0  0  0  0  0  0  0  0  0  0  0
   17.4763   18.2012   23.7907 C   0  0  0  0  0  0  0  0  0  0  0  0
   17.5728   17.3295   23.1285 H   0  0  0  0  0  0  0  0  0  0  0  0
   17.5135   19.0929   23.1510 H   0  0  0  0  0  0  0  0  0  0  0  0
   16.1072   18.1533   24.5024 C   0  0  0  0  0  0  0  0  0  0  0  0
   16.0148   17.2516   25.1217 H   0  0  0  0  0  0  0  0  0  0  0  0
   15.2897   18.1433   23.7699 H   0  0  0  0  0  0  0  0  0  0  0  0
   15.9683   19.0286   25.1502 H   0  0  0  0  0  0  0  0  0  0  0  0
   23.6290   20.3804   21.3951 C   0  0  0  0  0  0  0  0  0  0  0  0
   23.7127   19.4705   20.7966 H   0  0  0  0  0  0  0  0  0  0  0  0
   23.8878   21.2485   20.7847 H   0  0  0  0  0  0  0  0  0  0  0  0
   24.2998   20.3209   22.2550 H   0  0  0  0  0  0  0  0  0  0  0  0
  1  2  1  0  0  0  0
  1  3  1  0  0  0  0
  1  4  1  0  0  0  0
  4  5  1  0  0  0  0
  4  6  1  0  0  0  0
  4  7  1  0  0  0  0
  7  8  1  0  0  0  0
  7  9  1  0  0  0  0
  7 10  1  0  0  0  0
 10 11  1  0  0  0  0
 10 12  1  0  0  0  0
 10 13  1  0  0  0  0
 13 14  1  0  0  0  0
 13 15  1  0  0  0  0
 13 16  1  0  0  0  0
 16 17  1  0  0  0  0
 16 18  1  0  0  0  0
 16 19  1  0  0  0  0
 19 20  1  0  0  0  0
 19 21  1  0  0  0  0
 19 22  1  0  0  0  0
  1 23  1  0  0  0  0
 23 24  1  0  0  0  0
 23 25  1  0  0  0  0
 23 26  1  0  0  0  0
M  END
> <VConfSearch Rank>
206

> <Conf_Id>
36

> <Delta U+W>
0.662

> <U+W>
22.504

> <U>
71.348

> <W>
-48.844

> <W(PB)>
-51.157

> <W(SA)>
2.313

> <Valence>
2.262

> <Coulomb>
68.807

> <VdW>
0.280

> <VdW6>
-5.916

> <VdW12>
6.195

> <Bond>
0.164

> <Angle>
0.622

> <Pdih>
1.475

> <Idih>
0.000

> <Tether>
0.000

$$$$
VeraChem MOL file


 26 25  0  0  0  0  0  0  0  0999 V2000     
   17.2432   18.9859   24.1494 N   0  3  0  0  0  0  0  0  0  0  0  0
   17.2180   17.9740   24.3497 H   0  0  0  0  0  0  0  0  0  0  0  0
   16.5315   19.1387   23.4180 H   0  0  0  0  0  0  0  0  0  0  0  0
   18.6129   19.3837   23.6374 C   0  0  0  0  0  0  0  0  0  0  0  0
   19.3333   19.2013   24.4383 H   0  0  0  0  0  0  0  0  0  0  0  0
   18.5942   20.4561   23.4277 H   0  0  0  0  0  0  0  0  0  0  0  0
   19.0360   18.6154   22.3704 C   0  0  0  0  0  0  0  0  0  0  0  0
   19.0532   17.5377   22.5806 H   0  0  0  0  0  0  0  0  0  0  0  0
   18.2817   18.7712   21.5877 H   0  0  0  0  0  0  0  0  0  0  0  0
   20.4163   19.0624   21.8335 C   0  0  0  0  0  0  0  0  0  0  0  0
   20.3878   20.1355   21.5982 H   0  0  0  0  0  0  0  0  0  0  0  0
   20.6107   18.5420   20.8854 H   0  0  0  0  0  0  0  0  0  0  0  0
   21.5747   18.7743   22.8189 C   0  0  0  0  0  0  0  0  0  0  0  0
   21.4186   19.3280   23.7544 H   0  0  0  0  0  0  0  0  0  0  0  0
   21.5795   17.7065   23.0781 H   0  0  0  0  0  0  0  0  0  0  0  0
   22.9457   19.1643   22.2229 C   0  0  0  0  0  0  0  0  0  0  0  0
   22.9464   20.2317   21.9610 H   0  0  0  0  0  0  0  0  0  0  0  0
   23.1168   18.6093   21.2898 H   0  0  0  0  0  0  0  0  0  0  0  0
   24.1000   18.8781   23.2071 C   0  0  0  0  0  0  0  0  0  0  0  0
   23.9758   19.4469   24.1378 H   0  0  0  0  0  0  0  0  0  0  0  0
   25.0647   19.1609   22.7660 H   0  0  0  0  0  0  0  0  0  0  0  0
   24.1463   17.8113   23.4620 H   0  0  0  0  0  0  0  0  0  0  0  0
   16.9050   19.7865   25.3993 C   0  0  0  0  0  0  0  0  0  0  0  0
   16.9054   20.8511   25.1551 H   0  0  0  0  0  0  0  0  0  0  0  0
   15.9164   19.4907   25.7575 H   0  0  0  0  0  0  0  0  0  0  0  0
   17.6524   19.5831   26.1694 H   0  0  0  0  0  0  0  0  0  0  0  0
  1  2  1  0  0  0  0
  1  3  1  0  0  0  0
  1  4  1  0  0  0  0
  4  5  1  0  0  0  0
  4  6  1  0  0  0  0
  4  7  1  0  0  0  0
  7  8  1  0  0  0  0
  7  9  1  0  0  0  0
  7 10  1  0  0  0  0
 10 11  1  0  0  0  0
 10 12  1  0  0  0  0
 10 13  1  0  0  0  0
 13 14  1  0  0  0  0
 13 15  1  0  0  0  0
 13 16  1  0  0  0  0
 16 17  1  0  0  0  0
 16 18  1  0  0  0  0
 16 19  1  0  0  0  0
 19 20  1  0  0  0  0
 19 21  1  0  0  0  0
 19 22  1  0  0  0  0
  1 23  1  0  0  0  0
 23 24  1  0  0  0  0
 23 25  1  0  0  0  0
 23 26  1  0  0  0  0
M  END
> <VConfSearch Rank>
207

> <Conf_Id>
46

> <Delta U+W>
0.496

> <U+W>
22.338

> <U>
71.138

> <W>
-48.799

> <W(PB)>
-51.136

> <W(SA)>
2.337

> <Valence>
2.016

> <Coulomb>
68.932

> <VdW>
0.190

> <VdW6>
-5.902

> <VdW12>
6.092

> <Bond>
0.149

> <Angle>
0.477

> <Pdih>
1.390

> <Idih>
0.000

> <Tether>
0.000

$$$$
VeraChem MOL file


 26 25  0  0  0  0  0  0  0  0999 V2000     
   18.1258   21.4152   23.8493 N   0  3  0  0  0  0  0  0  0  0  0  0
   17.4174   21.6375   23.1327 H   0  0  0  0  0  0  0  0  0  0  0  0
   18.8413   22.1540   23.7664 H   0  0  0  0  0  0  0  0  0  0  0  0
   18.7409   20.0580   23.5732 C   0  0  0  0  0  0  0  0  0  0  0  0
   17.9509   19.3078   23.6601 H   0  0  0  0  0  0  0  0  0  0  0  0
   19.4855   19.8662   24.3494 H   0  0  0  0  0  0  0  0  0  0  0  0
   19.3987   19.9591   22.1833 C   0  0  0  0  0  0  0  0  0  0  0  0
   18.6513   20.1969   21.4148 H   0  0  0  0  0  0  0  0  0  0  0  0
   20.1913   20.7141   22.0953 H   0  0  0  0  0  0  0  0  0  0  0  0
   19.9836   18.5557   21.8975 C   0  0  0  0  0  0  0  0  0  0  0  0
   20.3518   18.5318   20.8624 H   0  0  0  0  0  0  0  0  0  0  0  0
   19.1828   17.8057   21.9592 H   0  0  0  0  0  0  0  0  0  0  0  0
   21.1356   18.1700   22.8566 C   0  0  0  0  0  0  0  0  0  0  0  0
   21.9194   18.9391   22.8172 H   0  0  0  0  0  0  0  0  0  0  0  0
   20.7694   18.1417   23.8915 H   0  0  0  0  0  0  0  0  0  0  0  0
   21.7454   16.7964   22.4980 C   0  0  0  0  0  0  0  0  0  0  0  0
   22.1235   16.8156   21.4662 H   0  0  0  0  0  0  0  0  0  0  0  0
   20.9653   16.0230   22.5350 H   0  0  0  0  0  0  0  0  0  0  0  0
   22.8932   16.4120   23.4561 C   0  0  0  0  0  0  0  0  0  0  0  0
   23.7049   17.1500   23.4162 H   0  0  0  0  0  0  0  0  0  0  0  0
   23.3133   15.4346   23.1853 H   0  0  0  0  0  0  0  0  0  0  0  0
   22.5382   16.3500   24.4931 H   0  0  0  0  0  0  0  0  0  0  0  0
   17.5027   21.4285   25.2383 C   0  0  0  0  0  0  0  0  0  0  0  0
   17.0633   22.4110   25.4244 H   0  0  0  0  0  0  0  0  0  0  0  0
   16.7269   20.6615   25.2913 H   0  0  0  0  0  0  0  0  0  0  0  0
   18.2768   21.2240   25.9812 H   0  0  0  0  0  0  0  0  0  0  0  0
  1  2  1  0  0  0  0
  1  3  1  0  0  0  0
  1  4  1  0  0  0  0
  4  5  1  0  0  0  0
  4  6  1  0  0  0  0
  4  7  1  0  0  0  0
  7  8  1  0  0  0  0
  7  9  1  0  0  0  0
  7 10  1  0  0  0  0
 10 11  1  0  0  0  0
 10 12  1  0  0  0  0
 10 13  1  0  0  0  0
 13 14  1  0  0  0  0
 13 15  1  0  0  0  0
 13 16  1  0  0  0  0
 16 17  1  0  0  0  0
 16 18  1  0  0  0  0
 16 19  1  0  0  0  0
 19 20  1  0  0  0  0
 19 21  1  0  0  0  0
 19 22  1  0  0  0  0
  1 23  1  0  0  0  0
 23 24  1  0  0  0  0
 23 25  1  0  0  0  0
 23 26  1  0  0  0  0
M  END
> <VConfSearch Rank>
208

> <Conf_Id>
45

> <Delta U+W>
0.471

> <U+W>
22.313

> <U>
71.138

> <W>
-48.825

> <W(PB)>
-51.169

> <W(SA)>
2.344

> <Valence>
2.016

> <Coulomb>
68.932

> <VdW>
0.190

> <VdW6>
-5.902

> <VdW12>
6.092

> <Bond>
0.149

> <Angle>
0.477

> <Pdih>
1.390

> <Idih>
0.000

> <Tether>
0.000

$$$$
VeraChem MOL file


 26 25  0  0  0  0  0  0  0  0999 V2000     
   22.3512   18.0115   22.6390 N   0  3  0  0  0  0  0  0  0  0  0  0
   22.5394   18.7900   23.2884 H   0  0  0  0  0  0  0  0  0  0  0  0
   22.2183   18.4488   21.7139 H   0  0  0  0  0  0  0  0  0  0  0  0
   21.0904   17.2791   23.0558 C   0  0  0  0  0  0  0  0  0  0  0  0
   21.2661   16.8388   24.0406 H   0  0  0  0  0  0  0  0  0  0  0  0
   20.9296   16.4667   22.3426 H   0  0  0  0  0  0  0  0  0  0  0  0
   19.8358   18.1732   23.1038 C   0  0  0  0  0  0  0  0  0  0  0  0
   19.6674   18.6084   22.1107 H   0  0  0  0  0  0  0  0  0  0  0  0
   18.9661   17.5391   23.3214 H   0  0  0  0  0  0  0  0  0  0  0  0
   19.9399   19.2876   24.1751 C   0  0  0  0  0  0  0  0  0  0  0  0
   20.7511   19.9824   23.9200 H   0  0  0  0  0  0  0  0  0  0  0  0
   20.2130   18.8326   25.1375 H   0  0  0  0  0  0  0  0  0  0  0  0
   18.6261   20.0851   24.3651 C   0  0  0  0  0  0  0  0  0  0  0  0
   17.8150   19.3985   24.6444 H   0  0  0  0  0  0  0  0  0  0  0  0
   18.7544   20.7707   25.2142 H   0  0  0  0  0  0  0  0  0  0  0  0
   18.2120   20.9016   23.1177 C   0  0  0  0  0  0  0  0  0  0  0  0
   18.0042   20.2286   22.2754 H   0  0  0  0  0  0  0  0  0  0  0  0
   19.0412   21.5530   22.8082 H   0  0  0  0  0  0  0  0  0  0  0  0
   16.9602   21.7627   23.3907 C   0  0  0  0  0  0  0  0  0  0  0  0
   16.1043   21.1362   23.6738 H   0  0  0  0  0  0  0  0  0  0  0  0
   16.6789   22.3325   22.4956 H   0  0  0  0  0  0  0  0  0  0  0  0
   17.1424   22.4793   24.2021 H   0  0  0  0  0  0  0  0  0  0  0  0
   23.5268   17.0447   22.6098 C   0  0  0  0  0  0  0  0  0  0  0  0
   23.3182   16.2474   21.8931 H   0  0  0  0  0  0  0  0  0  0  0  0
   24.4274   17.5847   22.3090 H   0  0  0  0  0  0  0  0  0  0  0  0
   23.6670   16.6196   23.6060 H   0  0  0  0  0  0  0  0  0  0  0  0
  1  2  1  0  0  0  0
  1  3  1  0  0  0  0
  1  4  1  0  0  0  0
  4  5  1  0  0  0  0
  4  6  1  0  0  0  0
  4  7  1  0  0  0  0
  7  8  1  0  0  0  0
  7  9  1  0  0  0  0
  7 10  1  0  0  0  0
 10 11  1  0  0  0  0
 10 12  1  0  0  0  0
 10 13  1  0  0  0  0
 13 14  1  0  0  0  0
 13 15  1  0  0  0  0
 13 16  1  0  0  0  0
 16 17  1  0  0  0  0
 16 18  1  0  0  0  0
 16 19  1  0  0  0  0
 19 20  1  0  0  0  0
 19 21  1  0  0  0  0
 19 22  1  0  0  0  0
  1 23  1  0  0  0  0
 23 24  1  0  0  0  0
 23 25  1  0  0  0  0
 23 26  1  0  0  0  0
M  END
> <VConfSearch Rank>
209

> <Conf_Id>
143

> <Delta U+W>
0.915

> <U+W>
22.757

> <U>
71.994

> <W>
-49.237

> <W(PB)>
-51.537

> <W(SA)>
2.300

> <Valence>
2.376

> <Coulomb>
69.315

> <VdW>
0.303

> <VdW6>
-6.508

> <VdW12>
6.810

> <Bond>
0.182

> <Angle>
0.660

> <Pdih>
1.534

> <Idih>
0.000

> <Tether>
0.000

$$$$
VeraChem MOL file


 26 25  0  0  0  0  0  0  0  0999 V2000     
   20.3840   21.4560   22.3774 N   0  3  0  0  0  0  0  0  0  0  0  0
   19.7170   21.6575   23.1374 H   0  0  0  0  0  0  0  0  0  0  0  0
   19.8052   21.2735   21.5429 H   0  0  0  0  0  0  0  0  0  0  0  0
   21.2089   20.2299   22.7184 C   0  0  0  0  0  0  0  0  0  0  0  0
   21.7992   20.4565   23.6098 H   0  0  0  0  0  0  0  0  0  0  0  0
   21.8983   20.0572   21.8879 H   0  0  0  0  0  0  0  0  0  0  0  0
   20.3727   18.9574   22.9591 C   0  0  0  0  0  0  0  0  0  0  0  0
   19.7579   18.7486   22.0736 H   0  0  0  0  0  0  0  0  0  0  0  0
   21.0680   18.1166   23.0717 H   0  0  0  0  0  0  0  0  0  0  0  0
   19.4788   19.0580   24.2193 C   0  0  0  0  0  0  0  0  0  0  0  0
   18.8561   19.9599   24.1555 H   0  0  0  0  0  0  0  0  0  0  0  0
   20.1141   19.1880   25.1064 H   0  0  0  0  0  0  0  0  0  0  0  0
   18.5376   17.8442   24.4342 C   0  0  0  0  0  0  0  0  0  0  0  0
   17.9299   18.0518   25.3259 H   0  0  0  0  0  0  0  0  0  0  0  0
   17.8236   17.7679   23.6025 H   0  0  0  0  0  0  0  0  0  0  0  0
   19.2588   16.4881   24.6481 C   0  0  0  0  0  0  0  0  0  0  0  0
   18.6839   15.8969   25.3747 H   0  0  0  0  0  0  0  0  0  0  0  0
   20.2461   16.6475   25.1035 H   0  0  0  0  0  0  0  0  0  0  0  0
   19.3915   15.6520   23.3535 C   0  0  0  0  0  0  0  0  0  0  0  0
   19.9739   16.1706   22.5841 H   0  0  0  0  0  0  0  0  0  0  0  0
   18.4039   15.4236   22.9320 H   0  0  0  0  0  0  0  0  0  0  0  0
   19.8921   14.6978   23.5624 H   0  0  0  0  0  0  0  0  0  0  0  0
   21.3006   22.6484   22.1420 C   0  0  0  0  0  0  0  0  0  0  0  0
   21.9756   22.4243   21.3131 H   0  0  0  0  0  0  0  0  0  0  0  0
   20.6945   23.5237   21.8979 H   0  0  0  0  0  0  0  0  0  0  0  0
   21.8789   22.8413   23.0484 H   0  0  0  0  0  0  0  0  0  0  0  0
  1  2  1  0  0  0  0
  1  3  1  0  0  0  0
  1  4  1  0  0  0  0
  4  5  1  0  0  0  0
  4  6  1  0  0  0  0
  4  7  1  0  0  0  0
  7  8  1  0  0  0  0
  7  9  1  0  0  0  0
  7 10  1  0  0  0  0
 10 11  1  0  0  0  0
 10 12  1  0  0  0  0
 10 13  1  0  0  0  0
 13 14  1  0  0  0  0
 13 15  1  0  0  0  0
 13 16  1  0  0  0  0
 16 17  1  0  0  0  0
 16 18  1  0  0  0  0
 16 19  1  0  0  0  0
 19 20  1  0  0  0  0
 19 21  1  0  0  0  0
 19 22  1  0  0  0  0
  1 23  1  0  0  0  0
 23 24  1  0  0  0  0
 23 25  1  0  0  0  0
 23 26  1  0  0  0  0
M  END
> <VConfSearch Rank>
210

> <Conf_Id>
76

> <Delta U+W>
3.468

> <U+W>
25.310

> <U>
74.594

> <W>
-49.283

> <W(PB)>
-51.537

> <W(SA)>
2.253

> <Valence>
4.886

> <Coulomb>
69.332

> <VdW>
0.376

> <VdW6>
-7.329

> <VdW12>
7.705

> <Bond>
0.232

> <Angle>
1.251

> <Pdih>
3.403

> <Idih>
0.000

> <Tether>
0.000

$$$$
VeraChem MOL file


 26 25  0  0  0  0  0  0  0  0999 V2000     
   20.0450   19.8577   20.6902 N   0  3  0  0  0  0  0  0  0  0  0  0
   19.1486   19.3473   20.6632 H   0  0  0  0  0  0  0  0  0  0  0  0
   20.7356   19.2231   20.2601 H   0  0  0  0  0  0  0  0  0  0  0  0
   20.4329   20.1583   22.1241 C   0  0  0  0  0  0  0  0  0  0  0  0
   19.6751   20.8246   22.5438 H   0  0  0  0  0  0  0  0  0  0  0  0
   21.3880   20.6895   22.1087 H   0  0  0  0  0  0  0  0  0  0  0  0
   20.5555   18.8977   22.9991 C   0  0  0  0  0  0  0  0  0  0  0  0
   19.6020   18.3580   22.9884 H   0  0  0  0  0  0  0  0  0  0  0  0
   21.3060   18.2253   22.5627 H   0  0  0  0  0  0  0  0  0  0  0  0
   20.9633   19.2560   24.4485 C   0  0  0  0  0  0  0  0  0  0  0  0
   20.2531   19.9750   24.8799 H   0  0  0  0  0  0  0  0  0  0  0  0
   21.9327   19.7725   24.4121 H   0  0  0  0  0  0  0  0  0  0  0  0
   21.1002   18.0205   25.3767 C   0  0  0  0  0  0  0  0  0  0  0  0
   21.4065   17.1391   24.7966 H   0  0  0  0  0  0  0  0  0  0  0  0
   21.9226   18.2111   26.0802 H   0  0  0  0  0  0  0  0  0  0  0  0
   19.8373   17.6945   26.2147 C   0  0  0  0  0  0  0  0  0  0  0  0
   19.6003   18.5443   26.8700 H   0  0  0  0  0  0  0  0  0  0  0  0
   20.0702   16.8527   26.8818 H   0  0  0  0  0  0  0  0  0  0  0  0
   18.5919   17.3313   25.3766 C   0  0  0  0  0  0  0  0  0  0  0  0
   18.8146   16.5280   24.6626 H   0  0  0  0  0  0  0  0  0  0  0  0
   18.2174   18.2002   24.8217 H   0  0  0  0  0  0  0  0  0  0  0  0
   17.7792   16.9850   26.0283 H   0  0  0  0  0  0  0  0  0  0  0  0
   19.9452   21.1540   19.8981 C   0  0  0  0  0  0  0  0  0  0  0  0
   19.1859   21.7947   20.3519 H   0  0  0  0  0  0  0  0  0  0  0  0
   20.9133   21.6595   19.9131 H   0  0  0  0  0  0  0  0  0  0  0  0
   19.6654   20.9235   18.8677 H   0  0  0  0  0  0  0  0  0  0  0  0
  1  2  1  0  0  0  0
  1  3  1  0  0  0  0
  1  4  1  0  0  0  0
  4  5  1  0  0  0  0
  4  6  1  0  0  0  0
  4  7  1  0  0  0  0
  7  8  1  0  0  0  0
  7  9  1  0  0  0  0
  7 10  1  0  0  0  0
 10 11  1  0  0  0  0
 10 12  1  0  0  0  0
 10 13  1  0  0  0  0
 13 14  1  0  0  0  0
 13 15  1  0  0  0  0
 13 16  1  0  0  0  0
 16 17  1  0  0  0  0
 16 18  1  0  0  0  0
 16 19  1  0  0  0  0
 19 20  1  0  0  0  0
 19 21  1  0  0  0  0
 19 22  1  0  0  0  0
  1 23  1  0  0  0  0
 23 24  1  0  0  0  0
 23 25  1  0  0  0  0
 23 26  1  0  0  0  0
M  END
> <VConfSearch Rank>
211

> <Conf_Id>
123

> <Delta U+W>
3.101

> <U+W>
24.943

> <U>
74.070

> <W>
-49.127

> <W(PB)>
-51.421

> <W(SA)>
2.295

> <Valence>
4.690

> <Coulomb>
69.115

> <VdW>
0.266

> <VdW6>
-6.809

> <VdW12>
7.075

> <Bond>
0.212

> <Angle>
1.133

> <Pdih>
3.345

> <Idih>
0.000

> <Tether>
0.000

$$$$
VeraChem MOL file


 26 25  0  0  0  0  0  0  0  0999 V2000     
   20.6381   20.8726   21.4546 N   0  3  0  0  0  0  0  0  0  0  0  0
   19.9498   21.6192   21.6378 H   0  0  0  0  0  0  0  0  0  0  0  0
   20.1188   20.1340   20.9565 H   0  0  0  0  0  0  0  0  0  0  0  0
   21.1838   20.3336   22.7629 C   0  0  0  0  0  0  0  0  0  0  0  0
   21.7246   21.1467   23.2539 H   0  0  0  0  0  0  0  0  0  0  0  0
   21.8988   19.5408   22.5290 H   0  0  0  0  0  0  0  0  0  0  0  0
   20.1019   19.7907   23.7172 C   0  0  0  0  0  0  0  0  0  0  0  0
   20.5825   19.5315   24.6671 H   0  0  0  0  0  0  0  0  0  0  0  0
   19.3827   20.5888   23.9446 H   0  0  0  0  0  0  0  0  0  0  0  0
   19.3580   18.5599   23.1385 C   0  0  0  0  0  0  0  0  0  0  0  0
   20.0776   17.7937   22.8182 H   0  0  0  0  0  0  0  0  0  0  0  0
   18.8206   18.8705   22.2326 H   0  0  0  0  0  0  0  0  0  0  0  0
   18.3293   17.9440   24.1227 C   0  0  0  0  0  0  0  0  0  0  0  0
   17.9308   18.7184   24.7927 H   0  0  0  0  0  0  0  0  0  0  0  0
   17.4690   17.5870   23.5398 H   0  0  0  0  0  0  0  0  0  0  0  0
   18.8607   16.7452   24.9498 C   0  0  0  0  0  0  0  0  0  0  0  0
   19.1614   15.9344   24.2716 H   0  0  0  0  0  0  0  0  0  0  0  0
   18.0343   16.3448   25.5536 H   0  0  0  0  0  0  0  0  0  0  0  0
   20.0375   17.0902   25.8887 C   0  0  0  0  0  0  0  0  0  0  0  0
   19.7888   17.9370   26.5414 H   0  0  0  0  0  0  0  0  0  0  0  0
   20.9417   17.3398   25.3200 H   0  0  0  0  0  0  0  0  0  0  0  0
   20.2805   16.2329   26.5296 H   0  0  0  0  0  0  0  0  0  0  0  0
   21.7790   21.3962   20.5935 C   0  0  0  0  0  0  0  0  0  0  0  0
   22.4764   20.5814   20.3871 H   0  0  0  0  0  0  0  0  0  0  0  0
   21.3725   21.7805   19.6553 H   0  0  0  0  0  0  0  0  0  0  0  0
   22.2937   22.1976   21.1281 H   0  0  0  0  0  0  0  0  0  0  0  0
  1  2  1  0  0  0  0
  1  3  1  0  0  0  0
  1  4  1  0  0  0  0
  4  5  1  0  0  0  0
  4  6  1  0  0  0  0
  4  7  1  0  0  0  0
  7  8  1  0  0  0  0
  7  9  1  0  0  0  0
  7 10  1  0  0  0  0
 10 11  1  0  0  0  0
 10 12  1  0  0  0  0
 10 13  1  0  0  0  0
 13 14  1  0  0  0  0
 13 15  1  0  0  0  0
 13 16  1  0  0  0  0
 16 17  1  0  0  0  0
 16 18  1  0  0  0  0
 16 19  1  0  0  0  0
 19 20  1  0  0  0  0
 19 21  1  0  0  0  0
 19 22  1  0  0  0  0
  1 23  1  0  0  0  0
 23 24  1  0  0  0  0
 23 25  1  0  0  0  0
 23 26  1  0  0  0  0
M  END
> <VConfSearch Rank>
212

> <Conf_Id>
111

> <Delta U+W>
3.383

> <U+W>
25.225

> <U>
74.516

> <W>
-49.292

> <W(PB)>
-51.558

> <W(SA)>
2.266

> <Valence>
4.842

> <Coulomb>
69.333

> <VdW>
0.342

> <VdW6>
-7.369

> <VdW12>
7.711

> <Bond>
0.232

> <Angle>
1.153

> <Pdih>
3.457

> <Idih>
0.000

> <Tether>
0.000

$$$$
VeraChem MOL file


 26 25  0  0  0  0  0  0  0  0999 V2000     
   22.1285   18.6396   22.2099 N   0  3  0  0  0  0  0  0  0  0  0  0
   22.0990   18.6059   21.1791 H   0  0  0  0  0  0  0  0  0  0  0  0
   21.4687   17.9147   22.5298 H   0  0  0  0  0  0  0  0  0  0  0  0
   21.6783   20.0018   22.7002 C   0  0  0  0  0  0  0  0  0  0  0  0
   22.3950   20.7399   22.3313 H   0  0  0  0  0  0  0  0  0  0  0  0
   21.7261   19.9996   23.7916 H   0  0  0  0  0  0  0  0  0  0  0  0
   20.2584   20.3930   22.2403 C   0  0  0  0  0  0  0  0  0  0  0  0
   20.0390   21.4067   22.6009 H   0  0  0  0  0  0  0  0  0  0  0  0
   20.2397   20.4485   21.1438 H   0  0  0  0  0  0  0  0  0  0  0  0
   19.1460   19.4277   22.7227 C   0  0  0  0  0  0  0  0  0  0  0  0
   19.3063   18.4285   22.2967 H   0  0  0  0  0  0  0  0  0  0  0  0
   18.1896   19.7821   22.3169 H   0  0  0  0  0  0  0  0  0  0  0  0
   19.0495   19.3302   24.2668 C   0  0  0  0  0  0  0  0  0  0  0  0
   20.0128   18.9984   24.6760 H   0  0  0  0  0  0  0  0  0  0  0  0
   18.8611   20.3267   24.6896 H   0  0  0  0  0  0  0  0  0  0  0  0
   17.9572   18.3478   24.7551 C   0  0  0  0  0  0  0  0  0  0  0  0
   18.0339   18.2513   25.8472 H   0  0  0  0  0  0  0  0  0  0  0  0
   18.1470   17.3460   24.3449 H   0  0  0  0  0  0  0  0  0  0  0  0
   16.5210   18.7933   24.3963 C   0  0  0  0  0  0  0  0  0  0  0  0
   16.3534   18.7832   23.3123 H   0  0  0  0  0  0  0  0  0  0  0  0
   16.3173   19.8062   24.7671 H   0  0  0  0  0  0  0  0  0  0  0  0
   15.7849   18.1165   24.8490 H   0  0  0  0  0  0  0  0  0  0  0  0
   23.5335   18.3444   22.7157 C   0  0  0  0  0  0  0  0  0  0  0  0
   23.8444   17.3609   22.3564 H   0  0  0  0  0  0  0  0  0  0  0  0
   24.2182   19.1078   22.3396 H   0  0  0  0  0  0  0  0  0  0  0  0
   23.5317   18.3547   23.8079 H   0  0  0  0  0  0  0  0  0  0  0  0
  1  2  1  0  0  0  0
  1  3  1  0  0  0  0
  1  4  1  0  0  0  0
  4  5  1  0  0  0  0
  4  6  1  0  0  0  0
  4  7  1  0  0  0  0
  7  8  1  0  0  0  0
  7  9  1  0  0  0  0
  7 10  1  0  0  0  0
 10 11  1  0  0  0  0
 10 12  1  0  0  0  0
 10 13  1  0  0  0  0
 13 14  1  0  0  0  0
 13 15  1  0  0  0  0
 13 16  1  0  0  0  0
 16 17  1  0  0  0  0
 16 18  1  0  0  0  0
 16 19  1  0  0  0  0
 19 20  1  0  0  0  0
 19 21  1  0  0  0  0
 19 22  1  0  0  0  0
  1 23  1  0  0  0  0
 23 24  1  0  0  0  0
 23 25  1  0  0  0  0
 23 26  1  0  0  0  0
M  END
> <VConfSearch Rank>
213

> <Conf_Id>
126

> <Delta U+W>
1.519

> <U+W>
23.361

> <U>
72.579

> <W>
-49.218

> <W(PB)>
-51.496

> <W(SA)>
2.279

> <Valence>
2.678

> <Coulomb>
69.622

> <VdW>
0.279

> <VdW6>
-7.328

> <VdW12>
7.608

> <Bond>
0.212

> <Angle>
0.911

> <Pdih>
1.555

> <Idih>
0.000

> <Tether>
0.000

$$$$
VeraChem MOL file


 26 25  0  0  0  0  0  0  0  0999 V2000     
   18.4069   20.3239   24.5321 N   0  3  0  0  0  0  0  0  0  0  0  0
   19.3378   20.7012   24.2996 H   0  0  0  0  0  0  0  0  0  0  0  0
   18.4214   20.1577   25.5503 H   0  0  0  0  0  0  0  0  0  0  0  0
   18.1782   19.0193   23.7941 C   0  0  0  0  0  0  0  0  0  0  0  0
   18.1659   19.2359   22.7234 H   0  0  0  0  0  0  0  0  0  0  0  0
   17.1894   18.6485   24.0759 H   0  0  0  0  0  0  0  0  0  0  0  0
   19.2358   17.9374   24.0962 C   0  0  0  0  0  0  0  0  0  0  0  0
   19.1972   17.6873   25.1648 H   0  0  0  0  0  0  0  0  0  0  0  0
   18.9635   17.0197   23.5581 H   0  0  0  0  0  0  0  0  0  0  0  0
   20.6834   18.3408   23.7173 C   0  0  0  0  0  0  0  0  0  0  0  0
   21.3506   17.5163   24.0001 H   0  0  0  0  0  0  0  0  0  0  0  0
   20.9993   19.2069   24.3138 H   0  0  0  0  0  0  0  0  0  0  0  0
   20.8554   18.6523   22.2085 C   0  0  0  0  0  0  0  0  0  0  0  0
   20.5656   17.7749   21.6140 H   0  0  0  0  0  0  0  0  0  0  0  0
   20.1714   19.4608   21.9188 H   0  0  0  0  0  0  0  0  0  0  0  0
   22.2934   19.0812   21.8279 C   0  0  0  0  0  0  0  0  0  0  0  0
   22.5845   19.9662   22.4108 H   0  0  0  0  0  0  0  0  0  0  0  0
   22.3000   19.3927   20.7739 H   0  0  0  0  0  0  0  0  0  0  0  0
   23.3428   17.9627   22.0210 C   0  0  0  0  0  0  0  0  0  0  0  0
   23.0577   17.0546   21.4742 H   0  0  0  0  0  0  0  0  0  0  0  0
   23.4667   17.7028   23.0794 H   0  0  0  0  0  0  0  0  0  0  0  0
   24.3221   18.2864   21.6453 H   0  0  0  0  0  0  0  0  0  0  0  0
   17.3185   21.3238   24.1677 C   0  0  0  0  0  0  0  0  0  0  0  0
   17.3444   21.5065   23.0912 H   0  0  0  0  0  0  0  0  0  0  0  0
   16.3461   20.9148   24.4505 H   0  0  0  0  0  0  0  0  0  0  0  0
   17.4960   22.2582   24.7050 H   0  0  0  0  0  0  0  0  0  0  0  0
  1  2  1  0  0  0  0
  1  3  1  0  0  0  0
  1  4  1  0  0  0  0
  4  5  1  0  0  0  0
  4  6  1  0  0  0  0
  4  7  1  0  0  0  0
  7  8  1  0  0  0  0
  7  9  1  0  0  0  0
  7 10  1  0  0  0  0
 10 11  1  0  0  0  0
 10 12  1  0  0  0  0
 10 13  1  0  0  0  0
 13 14  1  0  0  0  0
 13 15  1  0  0  0  0
 13 16  1  0  0  0  0
 16 17  1  0  0  0  0
 16 18  1  0  0  0  0
 16 19  1  0  0  0  0
 19 20  1  0  0  0  0
 19 21  1  0  0  0  0
 19 22  1  0  0  0  0
  1 23  1  0  0  0  0
 23 24  1  0  0  0  0
 23 25  1  0  0  0  0
 23 26  1  0  0  0  0
M  END
> <VConfSearch Rank>
214

> <Conf_Id>
134

> <Delta U+W>
1.464

> <U+W>
23.306

> <U>
72.579

> <W>
-49.273

> <W(PB)>
-51.540

> <W(SA)>
2.267

> <Valence>
2.677

> <Coulomb>
69.622

> <VdW>
0.280

> <VdW6>
-7.328

> <VdW12>
7.608

> <Bond>
0.212

> <Angle>
0.911

> <Pdih>
1.555

> <Idih>
0.000

> <Tether>
0.000

$$$$
VeraChem MOL file


 26 25  0  0  0  0  0  0  0  0999 V2000     
   18.2662   19.6426   21.3043 N   0  3  0  0  0  0  0  0  0  0  0  0
   18.7412   18.8950   20.7749 H   0  0  0  0  0  0  0  0  0  0  0  0
   18.6435   20.5269   20.9295 H   0  0  0  0  0  0  0  0  0  0  0  0
   18.5857   19.5220   22.7809 C   0  0  0  0  0  0  0  0  0  0  0  0
   18.1776   18.5723   23.1358 H   0  0  0  0  0  0  0  0  0  0  0  0
   18.0723   20.3338   23.3022 H   0  0  0  0  0  0  0  0  0  0  0  0
   20.0936   19.5833   23.0846 C   0  0  0  0  0  0  0  0  0  0  0  0
   20.6006   18.7756   22.5418 H   0  0  0  0  0  0  0  0  0  0  0  0
   20.5030   20.5318   22.7125 H   0  0  0  0  0  0  0  0  0  0  0  0
   20.3680   19.4572   24.6016 C   0  0  0  0  0  0  0  0  0  0  0  0
   19.9940   18.4918   24.9678 H   0  0  0  0  0  0  0  0  0  0  0  0
   19.7898   20.2255   25.1336 H   0  0  0  0  0  0  0  0  0  0  0  0
   21.8631   19.6236   24.9783 C   0  0  0  0  0  0  0  0  0  0  0  0
   22.1896   20.6368   24.7063 H   0  0  0  0  0  0  0  0  0  0  0  0
   21.9601   19.5607   26.0710 H   0  0  0  0  0  0  0  0  0  0  0  0
   22.8280   18.5976   24.3304 C   0  0  0  0  0  0  0  0  0  0  0  0
   23.8501   18.8167   24.6699 H   0  0  0  0  0  0  0  0  0  0  0  0
   22.8415   18.7247   23.2397 H   0  0  0  0  0  0  0  0  0  0  0  0
   22.4917   17.1303   24.6808 C   0  0  0  0  0  0  0  0  0  0  0  0
   22.4538   16.9828   25.7678 H   0  0  0  0  0  0  0  0  0  0  0  0
   23.2556   16.4536   24.2766 H   0  0  0  0  0  0  0  0  0  0  0  0
   21.5256   16.8270   24.2584 H   0  0  0  0  0  0  0  0  0  0  0  0
   16.7602   19.5725   21.0927 C   0  0  0  0  0  0  0  0  0  0  0  0
   16.2828   20.3918   21.6348 H   0  0  0  0  0  0  0  0  0  0  0  0
   16.5438   19.6606   20.0257 H   0  0  0  0  0  0  0  0  0  0  0  0
   16.3891   18.6156   21.4665 H   0  0  0  0  0  0  0  0  0  0  0  0
  1  2  1  0  0  0  0
  1  3  1  0  0  0  0
  1  4  1  0  0  0  0
  4  5  1  0  0  0  0
  4  6  1  0  0  0  0
  4  7  1  0  0  0  0
  7  8  1  0  0  0  0
  7  9  1  0  0  0  0
  7 10  1  0  0  0  0
 10 11  1  0  0  0  0
 10 12  1  0  0  0  0
 10 13  1  0  0  0  0
 13 14  1  0  0  0  0
 13 15  1  0  0  0  0
 13 16  1  0  0  0  0
 16 17  1  0  0  0  0
 16 18  1  0  0  0  0
 16 19  1  0  0  0  0
 19 20  1  0  0  0  0
 19 21  1  0  0  0  0
 19 22  1  0  0  0  0
  1 23  1  0  0  0  0
 23 24  1  0  0  0  0
 23 25  1  0  0  0  0
 23 26  1  0  0  0  0
M  END
> <VConfSearch Rank>
215

> <Conf_Id>
30

> <Delta U+W>
0.910

> <U+W>
22.752

> <U>
71.870

> <W>
-49.118

> <W(PB)>
-51.409

> <W(SA)>
2.290

> <Valence>
2.682

> <Coulomb>
68.933

> <VdW>
0.255

> <VdW6>
-6.833

> <VdW12>
7.088

> <Bond>
0.205

> <Angle>
1.003

> <Pdih>
1.473

> <Idih>
0.000

> <Tether>
0.000

$$$$
VeraChem MOL file


 26 25  0  0  0  0  0  0  0  0999 V2000     
   22.4012   19.5676   24.6336 N   0  3  0  0  0  0  0  0  0  0  0  0
   22.5785   20.5458   24.3570 H   0  0  0  0  0  0  0  0  0  0  0  0
   22.8281   18.9908   23.8922 H   0  0  0  0  0  0  0  0  0  0  0  0
   20.9100   19.3069   24.7060 C   0  0  0  0  0  0  0  0  0  0  0  0
   20.4968   19.9410   25.4945 H   0  0  0  0  0  0  0  0  0  0  0  0
   20.7657   18.2623   24.9930 H   0  0  0  0  0  0  0  0  0  0  0  0
   20.1782   19.5854   23.3806 C   0  0  0  0  0  0  0  0  0  0  0  0
   20.3386   20.6314   23.0875 H   0  0  0  0  0  0  0  0  0  0  0  0
   20.6134   18.9571   22.5932 H   0  0  0  0  0  0  0  0  0  0  0  0
   18.6619   19.3062   23.5051 C   0  0  0  0  0  0  0  0  0  0  0  0
   18.2608   19.8853   24.3486 H   0  0  0  0  0  0  0  0  0  0  0  0
   18.4982   18.2506   23.7599 H   0  0  0  0  0  0  0  0  0  0  0  0
   17.8558   19.6753   22.2327 C   0  0  0  0  0  0  0  0  0  0  0  0
   16.7907   19.4841   22.4228 H   0  0  0  0  0  0  0  0  0  0  0  0
   17.9397   20.7567   22.0577 H   0  0  0  0  0  0  0  0  0  0  0  0
   18.2759   18.9268   20.9417 C   0  0  0  0  0  0  0  0  0  0  0  0
   19.3020   19.1994   20.6610 H   0  0  0  0  0  0  0  0  0  0  0  0
   17.6382   19.2708   20.1153 H   0  0  0  0  0  0  0  0  0  0  0  0
   18.1565   17.3899   21.0550 C   0  0  0  0  0  0  0  0  0  0  0  0
   18.8637   16.9844   21.7892 H   0  0  0  0  0  0  0  0  0  0  0  0
   18.3746   16.9151   20.0896 H   0  0  0  0  0  0  0  0  0  0  0  0
   17.1425   17.0937   21.3533 H   0  0  0  0  0  0  0  0  0  0  0  0
   23.0452   19.2684   25.9803 C   0  0  0  0  0  0  0  0  0  0  0  0
   24.1186   19.4602   25.9146 H   0  0  0  0  0  0  0  0  0  0  0  0
   22.6013   19.9132   26.7419 H   0  0  0  0  0  0  0  0  0  0  0  0
   22.8728   18.2206   26.2360 H   0  0  0  0  0  0  0  0  0  0  0  0
  1  2  1  0  0  0  0
  1  3  1  0  0  0  0
  1  4  1  0  0  0  0
  4  5  1  0  0  0  0
  4  6  1  0  0  0  0
  4  7  1  0  0  0  0
  7  8  1  0  0  0  0
  7  9  1  0  0  0  0
  7 10  1  0  0  0  0
 10 11  1  0  0  0  0
 10 12  1  0  0  0  0
 10 13  1  0  0  0  0
 13 14  1  0  0  0  0
 13 15  1  0  0  0  0
 13 16  1  0  0  0  0
 16 17  1  0  0  0  0
 16 18  1  0  0  0  0
 16 19  1  0  0  0  0
 19 20  1  0  0  0  0
 19 21  1  0  0  0  0
 19 22  1  0  0  0  0
  1 23  1  0  0  0  0
 23 24  1  0  0  0  0
 23 25  1  0  0  0  0
 23 26  1  0  0  0  0
M  END
> <VConfSearch Rank>
216

> <Conf_Id>
29

> <Delta U+W>
0.886

> <U+W>
22.729

> <U>
71.870

> <W>
-49.141

> <W(PB)>
-51.404

> <W(SA)>
2.262

> <Valence>
2.682

> <Coulomb>
68.933

> <VdW>
0.255

> <VdW6>
-6.833

> <VdW12>
7.088

> <Bond>
0.205

> <Angle>
1.003

> <Pdih>
1.473

> <Idih>
0.000

> <Tether>
0.000

$$$$
VeraChem MOL file


 26 25  0  0  0  0  0  0  0  0999 V2000     
   18.3066   17.1330   22.7379 N   0  3  0  0  0  0  0  0  0  0  0  0
   17.4370   17.4113   22.2571 H   0  0  0  0  0  0  0  0  0  0  0  0
   18.0803   17.1462   23.7445 H   0  0  0  0  0  0  0  0  0  0  0  0
   19.4111   18.1257   22.4366 C   0  0  0  0  0  0  0  0  0  0  0  0
   19.6111   18.0901   21.3628 H   0  0  0  0  0  0  0  0  0  0  0  0
   20.3086   17.7964   22.9656 H   0  0  0  0  0  0  0  0  0  0  0  0
   19.0638   19.5681   22.8514 C   0  0  0  0  0  0  0  0  0  0  0  0
   18.1413   19.8766   22.3420 H   0  0  0  0  0  0  0  0  0  0  0  0
   18.8481   19.6022   23.9269 H   0  0  0  0  0  0  0  0  0  0  0  0
   20.1877   20.5761   22.5045 C   0  0  0  0  0  0  0  0  0  0  0  0
   19.8722   21.5836   22.8069 H   0  0  0  0  0  0  0  0  0  0  0  0
   20.3024   20.6176   21.4125 H   0  0  0  0  0  0  0  0  0  0  0  0
   21.5695   20.2536   23.1352 C   0  0  0  0  0  0  0  0  0  0  0  0
   21.9604   19.3233   22.7016 H   0  0  0  0  0  0  0  0  0  0  0  0
   22.2808   21.0374   22.8402 H   0  0  0  0  0  0  0  0  0  0  0  0
   21.5763   20.1283   24.6801 C   0  0  0  0  0  0  0  0  0  0  0  0
   22.5977   19.8885   25.0073 H   0  0  0  0  0  0  0  0  0  0  0  0
   20.9535   19.2805   24.9954 H   0  0  0  0  0  0  0  0  0  0  0  0
   21.1120   21.4139   25.4016 C   0  0  0  0  0  0  0  0  0  0  0  0
   21.2158   21.3038   26.4887 H   0  0  0  0  0  0  0  0  0  0  0  0
   20.0584   21.6356   25.1911 H   0  0  0  0  0  0  0  0  0  0  0  0
   21.7136   22.2786   25.0928 H   0  0  0  0  0  0  0  0  0  0  0  0
   18.7330   15.7371   22.3048 C   0  0  0  0  0  0  0  0  0  0  0  0
   17.9289   15.0320   22.5269 H   0  0  0  0  0  0  0  0  0  0  0  0
   18.9349   15.7402   21.2314 H   0  0  0  0  0  0  0  0  0  0  0  0
   19.6351   15.4517   22.8504 H   0  0  0  0  0  0  0  0  0  0  0  0
  1  2  1  0  0  0  0
  1  3  1  0  0  0  0
  1  4  1  0  0  0  0
  4  5  1  0  0  0  0
  4  6  1  0  0  0  0
  4  7  1  0  0  0  0
  7  8  1  0  0  0  0
  7  9  1  0  0  0  0
  7 10  1  0  0  0  0
 10 11  1  0  0  0  0
 10 12  1  0  0  0  0
 10 13  1  0  0  0  0
 13 14  1  0  0  0  0
 13 15  1  0  0  0  0
 13 16  1  0  0  0  0
 16 17  1  0  0  0  0
 16 18  1  0  0  0  0
 16 19  1  0  0  0  0
 19 20  1  0  0  0  0
 19 21  1  0  0  0  0
 19 22  1  0  0  0  0
  1 23  1  0  0  0  0
 23 24  1  0  0  0  0
 23 25  1  0  0  0  0
 23 26  1  0  0  0  0
M  END
> <VConfSearch Rank>
217

> <Conf_Id>
82

> <Delta U+W>
1.026

> <U+W>
22.868

> <U>
72.455

> <W>
-49.586

> <W(PB)>
-51.821

> <W(SA)>
2.234

> <Valence>
2.908

> <Coulomb>
69.435

> <VdW>
0.112

> <VdW6>
-7.765

> <VdW12>
7.877

> <Bond>
0.233

> <Angle>
1.170

> <Pdih>
1.506

> <Idih>
0.000

> <Tether>
0.000

$$$$
VeraChem MOL file


 26 25  0  0  0  0  0  0  0  0999 V2000     
   18.0847   17.8356   22.1677 N   0  3  0  0  0  0  0  0  0  0  0  0
   17.5912   18.7395   22.2322 H   0  0  0  0  0  0  0  0  0  0  0  0
   17.5540   17.1892   22.7721 H   0  0  0  0  0  0  0  0  0  0  0  0
   19.5055   17.9776   22.6747 C   0  0  0  0  0  0  0  0  0  0  0  0
   20.0286   18.6701   22.0110 H   0  0  0  0  0  0  0  0  0  0  0  0
   19.9876   16.9995   22.6018 H   0  0  0  0  0  0  0  0  0  0  0  0
   19.5866   18.4883   24.1259 C   0  0  0  0  0  0  0  0  0  0  0  0
   19.0895   19.4636   24.2033 H   0  0  0  0  0  0  0  0  0  0  0  0
   19.0281   17.8049   24.7793 H   0  0  0  0  0  0  0  0  0  0  0  0
   21.0435   18.5941   24.6412 C   0  0  0  0  0  0  0  0  0  0  0  0
   21.4826   17.5873   24.6728 H   0  0  0  0  0  0  0  0  0  0  0  0
   21.0316   18.9439   25.6821 H   0  0  0  0  0  0  0  0  0  0  0  0
   21.9686   19.5109   23.7958 C   0  0  0  0  0  0  0  0  0  0  0  0
   22.9646   19.5267   24.2593 H   0  0  0  0  0  0  0  0  0  0  0  0
   22.1136   19.0664   22.8020 H   0  0  0  0  0  0  0  0  0  0  0  0
   21.4737   20.9699   23.6251 C   0  0  0  0  0  0  0  0  0  0  0  0
   20.5273   20.9874   23.0681 H   0  0  0  0  0  0  0  0  0  0  0  0
   22.1980   21.5147   23.0036 H   0  0  0  0  0  0  0  0  0  0  0  0
   21.3045   21.7207   24.9654 C   0  0  0  0  0  0  0  0  0  0  0  0
   20.5108   21.2763   25.5785 H   0  0  0  0  0  0  0  0  0  0  0  0
   21.0362   22.7701   24.7873 H   0  0  0  0  0  0  0  0  0  0  0  0
   22.2361   21.7064   25.5458 H   0  0  0  0  0  0  0  0  0  0  0  0
   18.0957   17.3348   20.7301 C   0  0  0  0  0  0  0  0  0  0  0  0
   18.5931   16.3631   20.6921 H   0  0  0  0  0  0  0  0  0  0  0  0
   17.0667   17.2365   20.3771 H   0  0  0  0  0  0  0  0  0  0  0  0
   18.6335   18.0506   20.1045 H   0  0  0  0  0  0  0  0  0  0  0  0
  1  2  1  0  0  0  0
  1  3  1  0  0  0  0
  1  4  1  0  0  0  0
  4  5  1  0  0  0  0
  4  6  1  0  0  0  0
  4  7  1  0  0  0  0
  7  8  1  0  0  0  0
  7  9  1  0  0  0  0
  7 10  1  0  0  0  0
 10 11  1  0  0  0  0
 10 12  1  0  0  0  0
 10 13  1  0  0  0  0
 13 14  1  0  0  0  0
 13 15  1  0  0  0  0
 13 16  1  0  0  0  0
 16 17  1  0  0  0  0
 16 18  1  0  0  0  0
 16 19  1  0  0  0  0
 19 20  1  0  0  0  0
 19 21  1  0  0  0  0
 19 22  1  0  0  0  0
  1 23  1  0  0  0  0
 23 24  1  0  0  0  0
 23 25  1  0  0  0  0
 23 26  1  0  0  0  0
M  END
> <VConfSearch Rank>
218

> <Conf_Id>
71

> <Delta U+W>
1.096

> <U+W>
22.938

> <U>
72.455

> <W>
-49.517

> <W(PB)>
-51.795

> <W(SA)>
2.278

> <Valence>
2.908

> <Coulomb>
69.435

> <VdW>
0.112

> <VdW6>
-7.766

> <VdW12>
7.877

> <Bond>
0.233

> <Angle>
1.170

> <Pdih>
1.506

> <Idih>
0.000

> <Tether>
0.000

$$$$
VeraChem MOL file


 26 25  0  0  0  0  0  0  0  0999 V2000     
   21.9459   17.6056   23.3458 N   0  3  0  0  0  0  0  0  0  0  0  0
   21.8471   18.3717   22.6631 H   0  0  0  0  0  0  0  0  0  0  0  0
   22.2883   16.7993   22.7996 H   0  0  0  0  0  0  0  0  0  0  0  0
   20.5920   17.2731   23.9525 C   0  0  0  0  0  0  0  0  0  0  0  0
   20.7426   16.4728   24.6815 H   0  0  0  0  0  0  0  0  0  0  0  0
   19.9625   16.8799   23.1507 H   0  0  0  0  0  0  0  0  0  0  0  0
   19.8669   18.4587   24.6291 C   0  0  0  0  0  0  0  0  0  0  0  0
   18.9046   18.1034   25.0207 H   0  0  0  0  0  0  0  0  0  0  0  0
   20.4446   18.7871   25.5028 H   0  0  0  0  0  0  0  0  0  0  0  0
   19.6216   19.6701   23.6943 C   0  0  0  0  0  0  0  0  0  0  0  0
   20.5825   20.0832   23.3597 H   0  0  0  0  0  0  0  0  0  0  0  0
   19.1379   20.4607   24.2824 H   0  0  0  0  0  0  0  0  0  0  0  0
   18.7409   19.3251   22.4663 C   0  0  0  0  0  0  0  0  0  0  0  0
   19.2084   18.5137   21.8934 H   0  0  0  0  0  0  0  0  0  0  0  0
   17.7679   18.9430   22.8047 H   0  0  0  0  0  0  0  0  0  0  0  0
   18.5205   20.5228   21.5104 C   0  0  0  0  0  0  0  0  0  0  0  0
   17.9878   20.1667   20.6175 H   0  0  0  0  0  0  0  0  0  0  0  0
   19.4903   20.9013   21.1582 H   0  0  0  0  0  0  0  0  0  0  0  0
   17.7106   21.6772   22.1438 C   0  0  0  0  0  0  0  0  0  0  0  0
   18.2596   22.1528   22.9657 H   0  0  0  0  0  0  0  0  0  0  0  0
   16.7494   21.3180   22.5338 H   0  0  0  0  0  0  0  0  0  0  0  0
   17.5000   22.4533   21.3966 H   0  0  0  0  0  0  0  0  0  0  0  0
   22.9589   17.9700   24.4248 C   0  0  0  0  0  0  0  0  0  0  0  0
   23.9241   18.1723   23.9553 H   0  0  0  0  0  0  0  0  0  0  0  0
   22.6154   18.8596   24.9566 H   0  0  0  0  0  0  0  0  0  0  0  0
   23.0558   17.1351   25.1223 H   0  0  0  0  0  0  0  0  0  0  0  0
  1  2  1  0  0  0  0
  1  3  1  0  0  0  0
  1  4  1  0  0  0  0
  4  5  1  0  0  0  0
  4  6  1  0  0  0  0
  4  7  1  0  0  0  0
  7  8  1  0  0  0  0
  7  9  1  0  0  0  0
  7 10  1  0  0  0  0
 10 11  1  0  0  0  0
 10 12  1  0  0  0  0
 10 13  1  0  0  0  0
 13 14  1  0  0  0  0
 13 15  1  0  0  0  0
 13 16  1  0  0  0  0
 16 17  1  0  0  0  0
 16 18  1  0  0  0  0
 16 19  1  0  0  0  0
 19 20  1  0  0  0  0
 19 21  1  0  0  0  0
 19 22  1  0  0  0  0
  1 23  1  0  0  0  0
 23 24  1  0  0  0  0
 23 25  1  0  0  0  0
 23 26  1  0  0  0  0
M  END
> <VConfSearch Rank>
219

> <Conf_Id>
84

> <Delta U+W>
1.456

> <U+W>
23.298

> <U>
73.042

> <W>
-49.744

> <W(PB)>
-51.966

> <W(SA)>
2.222

> <Valence>
2.938

> <Coulomb>
69.625

> <VdW>
0.478

> <VdW6>
-8.182

> <VdW12>
8.660

> <Bond>
0.253

> <Angle>
1.038

> <Pdih>
1.647

> <Idih>
0.000

> <Tether>
0.000

$$$$
VeraChem MOL file


 26 25  0  0  0  0  0  0  0  0999 V2000     
   19.0274   18.0421   21.3867 N   0  3  0  0  0  0  0  0  0  0  0  0
   18.9435   17.7054   22.3576 H   0  0  0  0  0  0  0  0  0  0  0  0
   19.4994   17.2838   20.8701 H   0  0  0  0  0  0  0  0  0  0  0  0
   19.8689   19.3026   21.3467 C   0  0  0  0  0  0  0  0  0  0  0  0
   19.3363   20.0806   21.8986 H   0  0  0  0  0  0  0  0  0  0  0  0
   19.9435   19.6180   20.3029 H   0  0  0  0  0  0  0  0  0  0  0  0
   21.2858   19.1259   21.9308 C   0  0  0  0  0  0  0  0  0  0  0  0
   21.8296   18.3800   21.3360 H   0  0  0  0  0  0  0  0  0  0  0  0
   21.8346   20.0697   21.8128 H   0  0  0  0  0  0  0  0  0  0  0  0
   21.3066   18.7065   23.4224 C   0  0  0  0  0  0  0  0  0  0  0  0
   22.3530   18.5955   23.7390 H   0  0  0  0  0  0  0  0  0  0  0  0
   20.8473   17.7157   23.5391 H   0  0  0  0  0  0  0  0  0  0  0  0
   20.6009   19.7234   24.3518 C   0  0  0  0  0  0  0  0  0  0  0  0
   21.0478   20.7177   24.2140 H   0  0  0  0  0  0  0  0  0  0  0  0
   19.5408   19.8108   24.0786 H   0  0  0  0  0  0  0  0  0  0  0  0
   20.7077   19.3134   25.8376 C   0  0  0  0  0  0  0  0  0  0  0  0
   21.7653   19.2330   26.1257 H   0  0  0  0  0  0  0  0  0  0  0  0
   20.2638   18.3183   25.9811 H   0  0  0  0  0  0  0  0  0  0  0  0
   20.0012   20.3271   26.7629 C   0  0  0  0  0  0  0  0  0  0  0  0
   20.4459   21.3262   26.6668 H   0  0  0  0  0  0  0  0  0  0  0  0
   20.0884   20.0195   27.8131 H   0  0  0  0  0  0  0  0  0  0  0  0
   18.9329   20.4038   26.5223 H   0  0  0  0  0  0  0  0  0  0  0  0
   17.6519   18.3175   20.7957 C   0  0  0  0  0  0  0  0  0  0  0  0
   17.7652   18.6432   19.7594 H   0  0  0  0  0  0  0  0  0  0  0  0
   17.0567   17.4024   20.8317 H   0  0  0  0  0  0  0  0  0  0  0  0
   17.1609   19.1002   21.3781 H   0  0  0  0  0  0  0  0  0  0  0  0
  1  2  1  0  0  0  0
  1  3  1  0  0  0  0
  1  4  1  0  0  0  0
  4  5  1  0  0  0  0
  4  6  1  0  0  0  0
  4  7  1  0  0  0  0
  7  8  1  0  0  0  0
  7  9  1  0  0  0  0
  7 10  1  0  0  0  0
 10 11  1  0  0  0  0
 10 12  1  0  0  0  0
 10 13  1  0  0  0  0
 13 14  1  0  0  0  0
 13 15  1  0  0  0  0
 13 16  1  0  0  0  0
 16 17  1  0  0  0  0
 16 18  1  0  0  0  0
 16 19  1  0  0  0  0
 19 20  1  0  0  0  0
 19 21  1  0  0  0  0
 19 22  1  0  0  0  0
  1 23  1  0  0  0  0
 23 24  1  0  0  0  0
 23 25  1  0  0  0  0
 23 26  1  0  0  0  0
M  END
> <VConfSearch Rank>
220

> <Conf_Id>
73

> <Delta U+W>
0.884

> <U+W>
22.726

> <U>
71.905

> <W>
-49.179

> <W(PB)>
-51.494

> <W(SA)>
2.315

> <Valence>
2.125

> <Coulomb>
69.686

> <VdW>
0.093

> <VdW6>
-6.766

> <VdW12>
6.859

> <Bond>
0.169

> <Angle>
0.621

> <Pdih>
1.336

> <Idih>
0.000

> <Tether>
0.000

$$$$
VeraChem MOL file


 26 25  0  0  0  0  0  0  0  0999 V2000     
   22.1603   17.0957   21.8446 N   0  3  0  0  0  0  0  0  0  0  0  0
   21.8852   16.2513   22.3702 H   0  0  0  0  0  0  0  0  0  0  0  0
   22.9946   17.4612   22.3297 H   0  0  0  0  0  0  0  0  0  0  0  0
   21.0441   18.1203   21.8797 C   0  0  0  0  0  0  0  0  0  0  0  0
   20.1801   17.6926   21.3650 H   0  0  0  0  0  0  0  0  0  0  0  0
   21.3776   18.9986   21.3212 H   0  0  0  0  0  0  0  0  0  0  0  0
   20.6436   18.5355   23.3071 C   0  0  0  0  0  0  0  0  0  0  0  0
   20.3250   17.6477   23.8696 H   0  0  0  0  0  0  0  0  0  0  0  0
   21.5185   18.9494   23.8259 H   0  0  0  0  0  0  0  0  0  0  0  0
   19.5047   19.5792   23.2935 C   0  0  0  0  0  0  0  0  0  0  0  0
   18.6332   19.1634   22.7688 H   0  0  0  0  0  0  0  0  0  0  0  0
   19.8253   20.4635   22.7250 H   0  0  0  0  0  0  0  0  0  0  0  0
   19.0941   20.0039   24.7219 C   0  0  0  0  0  0  0  0  0  0  0  0
   18.7734   19.1199   25.2905 H   0  0  0  0  0  0  0  0  0  0  0  0
   19.9654   20.4199   25.2466 H   0  0  0  0  0  0  0  0  0  0  0  0
   17.9551   21.0478   24.7080 C   0  0  0  0  0  0  0  0  0  0  0  0
   17.0800   20.6356   24.1862 H   0  0  0  0  0  0  0  0  0  0  0  0
   18.2719   21.9354   24.1425 H   0  0  0  0  0  0  0  0  0  0  0  0
   17.5477   21.4695   26.1360 C   0  0  0  0  0  0  0  0  0  0  0  0
   16.7384   22.2105   26.1054 H   0  0  0  0  0  0  0  0  0  0  0  0
   18.3943   21.9176   26.6722 H   0  0  0  0  0  0  0  0  0  0  0  0
   17.1932   20.6076   26.7163 H   0  0  0  0  0  0  0  0  0  0  0  0
   22.4937   16.7419   20.4019 C   0  0  0  0  0  0  0  0  0  0  0  0
   22.8135   17.6439   19.8755 H   0  0  0  0  0  0  0  0  0  0  0  0
   23.2985   16.0035   20.3909 H   0  0  0  0  0  0  0  0  0  0  0  0
   21.6059   16.3269   19.9195 H   0  0  0  0  0  0  0  0  0  0  0  0
  1  2  1  0  0  0  0
  1  3  1  0  0  0  0
  1  4  1  0  0  0  0
  4  5  1  0  0  0  0
  4  6  1  0  0  0  0
  4  7  1  0  0  0  0
  7  8  1  0  0  0  0
  7  9  1  0  0  0  0
  7 10  1  0  0  0  0
 10 11  1  0  0  0  0
 10 12  1  0  0  0  0
 10 13  1  0  0  0  0
 13 14  1  0  0  0  0
 13 15  1  0  0  0  0
 13 16  1  0  0  0  0
 16 17  1  0  0  0  0
 16 18  1  0  0  0  0
 16 19  1  0  0  0  0
 19 20  1  0  0  0  0
 19 21  1  0  0  0  0
 19 22  1  0  0  0  0
  1 23  1  0  0  0  0
 23 24  1  0  0  0  0
 23 25  1  0  0  0  0
 23 26  1  0  0  0  0
M  END
> <VConfSearch Rank>
221

> <Conf_Id>
11

> <Delta U+W>
0.000

> <U+W>
21.842

> <U>
70.357

> <W>
-48.515

> <W(PB)>
-50.856

> <W(SA)>
2.341

> <Valence>
1.714

> <Coulomb>
68.480

> <VdW>
0.163

> <VdW6>
-5.268

> <VdW12>
5.431

> <Bond>
0.126

> <Angle>
0.350

> <Pdih>
1.238

> <Idih>
0.000

> <Tether>
0.000

$$$$
VeraChem MOL file


 26 25  0  0  0  0  0  0  0  0999 V2000     
   20.6919   15.7877   23.8355 N   0  3  0  0  0  0  0  0  0  0  0  0
   21.4471   15.2210   24.2533 H   0  0  0  0  0  0  0  0  0  0  0  0
   20.6884   15.5308   22.8363 H   0  0  0  0  0  0  0  0  0  0  0  0
   21.0149   17.2637   23.9975 C   0  0  0  0  0  0  0  0  0  0  0  0
   22.0445   17.4094   23.6606 H   0  0  0  0  0  0  0  0  0  0  0  0
   20.9698   17.5032   25.0629 H   0  0  0  0  0  0  0  0  0  0  0  0
   20.0905   18.2119   23.2071 C   0  0  0  0  0  0  0  0  0  0  0  0
   20.1039   17.9322   22.1454 H   0  0  0  0  0  0  0  0  0  0  0  0
   19.0562   18.0991   23.5569 H   0  0  0  0  0  0  0  0  0  0  0  0
   20.5287   19.6851   23.3624 C   0  0  0  0  0  0  0  0  0  0  0  0
   21.5649   19.7976   23.0139 H   0  0  0  0  0  0  0  0  0  0  0  0
   20.5201   19.9591   24.4266 H   0  0  0  0  0  0  0  0  0  0  0  0
   19.6108   20.6466   22.5735 C   0  0  0  0  0  0  0  0  0  0  0  0
   19.6191   20.3725   21.5094 H   0  0  0  0  0  0  0  0  0  0  0  0
   18.5747   20.5344   22.9221 H   0  0  0  0  0  0  0  0  0  0  0  0
   20.0494   22.1199   22.7290 C   0  0  0  0  0  0  0  0  0  0  0  0
   21.0847   22.2379   22.3793 H   0  0  0  0  0  0  0  0  0  0  0  0
   20.0404   22.3997   23.7919 H   0  0  0  0  0  0  0  0  0  0  0  0
   19.1305   23.0770   21.9401 C   0  0  0  0  0  0  0  0  0  0  0  0
   19.4577   24.1176   22.0628 H   0  0  0  0  0  0  0  0  0  0  0  0
   18.0926   23.0068   22.2910 H   0  0  0  0  0  0  0  0  0  0  0  0
   19.1451   22.8438   20.8674 H   0  0  0  0  0  0  0  0  0  0  0  0
   19.3602   15.4381   24.4902 C   0  0  0  0  0  0  0  0  0  0  0  0
   18.5586   15.9932   23.9989 H   0  0  0  0  0  0  0  0  0  0  0  0
   19.1814   14.3656   24.3855 H   0  0  0  0  0  0  0  0  0  0  0  0
   19.4003   15.7034   25.5490 H   0  0  0  0  0  0  0  0  0  0  0  0
  1  2  1  0  0  0  0
  1  3  1  0  0  0  0
  1  4  1  0  0  0  0
  4  5  1  0  0  0  0
  4  6  1  0  0  0  0
  4  7  1  0  0  0  0
  7  8  1  0  0  0  0
  7  9  1  0  0  0  0
  7 10  1  0  0  0  0
 10 11  1  0  0  0  0
 10 12  1  0  0  0  0
 10 13  1  0  0  0  0
 13 14  1  0  0  0  0
 13 15  1  0  0  0  0
 13 16  1  0  0  0  0
 16 17  1  0  0  0  0
 16 18  1  0  0  0  0
 16 19  1  0  0  0  0
 19 20  1  0  0  0  0
 19 21  1  0  0  0  0
 19 22  1  0  0  0  0
  1 23  1  0  0  0  0
 23 24  1  0  0  0  0
 23 25  1  0  0  0  0
 23 26  1  0  0  0  0
M  END
> <VConfSearch Rank>
222

> <Conf_Id>
102

> <Delta U+W>
0.121

> <U+W>
21.963

> <U>
70.745

> <W>
-48.782

> <W(PB)>
-51.111

> <W(SA)>
2.329

> <Valence>
1.993

> <Coulomb>
68.323

> <VdW>
0.429

> <VdW6>
-5.973

> <VdW12>
6.402

> <Bond>
0.161

> <Angle>
0.472

> <Pdih>
1.360

> <Idih>
0.000

> <Tether>
0.000

$$$$
VeraChem MOL file


 26 25  0  0  0  0  0  0  0  0999 V2000     
   17.1605   18.9144   24.9211 N   0  3  0  0  0  0  0  0  0  0  0  0
   17.1756   19.9091   25.1945 H   0  0  0  0  0  0  0  0  0  0  0  0
   16.7549   18.4214   25.7325 H   0  0  0  0  0  0  0  0  0  0  0  0
   18.5749   18.4147   24.6779 C   0  0  0  0  0  0  0  0  0  0  0  0
   18.5127   17.3729   24.3534 H   0  0  0  0  0  0  0  0  0  0  0  0
   19.0975   18.4403   25.6375 H   0  0  0  0  0  0  0  0  0  0  0  0
   19.3766   19.2376   23.6489 C   0  0  0  0  0  0  0  0  0  0  0  0
   18.8795   19.1952   22.6712 H   0  0  0  0  0  0  0  0  0  0  0  0
   19.3914   20.2913   23.9575 H   0  0  0  0  0  0  0  0  0  0  0  0
   20.8240   18.7148   23.5139 C   0  0  0  0  0  0  0  0  0  0  0  0
   20.8046   17.6584   23.2115 H   0  0  0  0  0  0  0  0  0  0  0  0
   21.3210   18.7556   24.4933 H   0  0  0  0  0  0  0  0  0  0  0  0
   21.6393   19.5321   22.4860 C   0  0  0  0  0  0  0  0  0  0  0  0
   21.1427   19.4911   21.5066 H   0  0  0  0  0  0  0  0  0  0  0  0
   21.6585   20.5884   22.7882 H   0  0  0  0  0  0  0  0  0  0  0  0
   23.0869   19.0090   22.3513 C   0  0  0  0  0  0  0  0  0  0  0  0
   23.0732   17.9530   22.0469 H   0  0  0  0  0  0  0  0  0  0  0  0
   23.5890   19.0504   23.3281 H   0  0  0  0  0  0  0  0  0  0  0  0
   23.8979   19.8273   21.3239 C   0  0  0  0  0  0  0  0  0  0  0  0
   23.4389   19.7768   20.3280 H   0  0  0  0  0  0  0  0  0  0  0  0
   24.9222   19.4412   21.2424 H   0  0  0  0  0  0  0  0  0  0  0  0
   23.9586   20.8829   21.6192 H   0  0  0  0  0  0  0  0  0  0  0  0
   16.2807   18.7023   23.6942 C   0  0  0  0  0  0  0  0  0  0  0  0
   16.2691   17.6401   23.4403 H   0  0  0  0  0  0  0  0  0  0  0  0
   15.2662   19.0384   23.9199 H   0  0  0  0  0  0  0  0  0  0  0  0
   16.6805   19.2792   22.8579 H   0  0  0  0  0  0  0  0  0  0  0  0
  1  2  1  0  0  0  0
  1  3  1  0  0  0  0
  1  4  1  0  0  0  0
  4  5  1  0  0  0  0
  4  6  1  0  0  0  0
  4  7  1  0  0  0  0
  7  8  1  0  0  0  0
  7  9  1  0  0  0  0
  7 10  1  0  0  0  0
 10 11  1  0  0  0  0
 10 12  1  0  0  0  0
 10 13  1  0  0  0  0
 13 14  1  0  0  0  0
 13 15  1  0  0  0  0
 13 16  1  0  0  0  0
 16 17  1  0  0  0  0
 16 18  1  0  0  0  0
 16 19  1  0  0  0  0
 19 20  1  0  0  0  0
 19 21  1  0  0  0  0
 19 22  1  0  0  0  0
  1 23  1  0  0  0  0
 23 24  1  0  0  0  0
 23 25  1  0  0  0  0
 23 26  1  0  0  0  0
M  END
> <VConfSearch Rank>
223

> <Conf_Id>
37

> <Delta U+W>
0.125

> <U+W>
21.967

> <U>
70.745

> <W>
-48.778

> <W(PB)>
-51.115

> <W(SA)>
2.337

> <Valence>
1.993

> <Coulomb>
68.323

> <VdW>
0.429

> <VdW6>
-5.973

> <VdW12>
6.403

> <Bond>
0.161

> <Angle>
0.472

> <Pdih>
1.360

> <Idih>
0.000

> <Tether>
0.000

$$$$
VeraChem MOL file


 26 25  0  0  0  0  0  0  0  0999 V2000     
   22.2473   20.8994   22.2516 N   0  3  0  0  0  0  0  0  0  0  0  0
   22.4754   20.6705   21.2716 H   0  0  0  0  0  0  0  0  0  0  0  0
   23.0107   20.4915   22.8135 H   0  0  0  0  0  0  0  0  0  0  0  0
   20.9218   20.2757   22.6394 C   0  0  0  0  0  0  0  0  0  0  0  0
   20.1446   20.7254   22.0163 H   0  0  0  0  0  0  0  0  0  0  0  0
   20.7234   20.5380   23.6812 H   0  0  0  0  0  0  0  0  0  0  0  0
   20.8979   18.7440   22.4724 C   0  0  0  0  0  0  0  0  0  0  0  0
   21.1453   18.4938   21.4322 H   0  0  0  0  0  0  0  0  0  0  0  0
   21.6784   18.2914   23.0986 H   0  0  0  0  0  0  0  0  0  0  0  0
   19.5248   18.1235   22.8237 C   0  0  0  0  0  0  0  0  0  0  0  0
   19.5565   17.0553   22.5727 H   0  0  0  0  0  0  0  0  0  0  0  0
   18.7477   18.5699   22.1878 H   0  0  0  0  0  0  0  0  0  0  0  0
   19.1431   18.2960   24.3161 C   0  0  0  0  0  0  0  0  0  0  0  0
   19.9102   17.8315   24.9509 H   0  0  0  0  0  0  0  0  0  0  0  0
   19.1352   19.3636   24.5725 H   0  0  0  0  0  0  0  0  0  0  0  0
   17.7556   17.7068   24.6693 C   0  0  0  0  0  0  0  0  0  0  0  0
   16.9824   18.1762   24.0452 H   0  0  0  0  0  0  0  0  0  0  0  0
   17.5145   17.9732   25.7080 H   0  0  0  0  0  0  0  0  0  0  0  0
   17.6818   16.1698   24.5214 C   0  0  0  0  0  0  0  0  0  0  0  0
   17.7908   15.8586   23.4752 H   0  0  0  0  0  0  0  0  0  0  0  0
   16.7125   15.7963   24.8762 H   0  0  0  0  0  0  0  0  0  0  0  0
   18.4665   15.6779   25.1108 H   0  0  0  0  0  0  0  0  0  0  0  0
   22.1870   22.4079   22.4476 C   0  0  0  0  0  0  0  0  0  0  0  0
   21.9778   22.6257   23.4972 H   0  0  0  0  0  0  0  0  0  0  0  0
   23.1475   22.8446   22.1647 H   0  0  0  0  0  0  0  0  0  0  0  0
   21.3948   22.8204   21.8189 H   0  0  0  0  0  0  0  0  0  0  0  0
  1  2  1  0  0  0  0
  1  3  1  0  0  0  0
  1  4  1  0  0  0  0
  4  5  1  0  0  0  0
  4  6  1  0  0  0  0
  4  7  1  0  0  0  0
  7  8  1  0  0  0  0
  7  9  1  0  0  0  0
  7 10  1  0  0  0  0
 10 11  1  0  0  0  0
 10 12  1  0  0  0  0
 10 13  1  0  0  0  0
 13 14  1  0  0  0  0
 13 15  1  0  0  0  0
 13 16  1  0  0  0  0
 16 17  1  0  0  0  0
 16 18  1  0  0  0  0
 16 19  1  0  0  0  0
 19 20  1  0  0  0  0
 19 21  1  0  0  0  0
 19 22  1  0  0  0  0
  1 23  1  0  0  0  0
 23 24  1  0  0  0  0
 23 25  1  0  0  0  0
 23 26  1  0  0  0  0
M  END
> <VConfSearch Rank>
224

> <Conf_Id>
137

> <Delta U+W>
1.038

> <U+W>
22.880

> <U>
71.810

> <W>
-48.930

> <W(PB)>
-51.257

> <W(SA)>
2.327

> <Valence>
2.568

> <Coulomb>
68.877

> <VdW>
0.364

> <VdW6>
-6.470

> <VdW12>
6.834

> <Bond>
0.191

> <Angle>
0.752

> <Pdih>
1.626

> <Idih>
0.000

> <Tether>
0.000

$$$$
VeraChem MOL file


 26 25  0  0  0  0  0  0  0  0999 V2000     
   19.7707   17.3388   20.8923 N   0  3  0  0  0  0  0  0  0  0  0  0
   20.4660   16.7085   21.3214 H   0  0  0  0  0  0  0  0  0  0  0  0
   20.3096   17.9554   20.2644 H   0  0  0  0  0  0  0  0  0  0  0  0
   19.0773   18.1587   21.9618 C   0  0  0  0  0  0  0  0  0  0  0  0
   18.5267   17.4702   22.6078 H   0  0  0  0  0  0  0  0  0  0  0  0
   18.3580   18.8158   21.4665 H   0  0  0  0  0  0  0  0  0  0  0  0
   20.0486   18.9997   22.8099 C   0  0  0  0  0  0  0  0  0  0  0  0
   20.7767   18.3314   23.2865 H   0  0  0  0  0  0  0  0  0  0  0  0
   20.6110   19.6783   22.1548 H   0  0  0  0  0  0  0  0  0  0  0  0
   19.2938   19.8187   23.8836 C   0  0  0  0  0  0  0  0  0  0  0  0
   18.7705   19.1378   24.5692 H   0  0  0  0  0  0  0  0  0  0  0  0
   18.5152   20.4187   23.3921 H   0  0  0  0  0  0  0  0  0  0  0  0
   20.2079   20.7704   24.6944 C   0  0  0  0  0  0  0  0  0  0  0  0
   20.7177   21.4631   24.0106 H   0  0  0  0  0  0  0  0  0  0  0  0
   19.5751   21.3903   25.3445 H   0  0  0  0  0  0  0  0  0  0  0  0
   21.2530   20.0335   25.5656 C   0  0  0  0  0  0  0  0  0  0  0  0
   21.9472   19.4687   24.9295 H   0  0  0  0  0  0  0  0  0  0  0  0
   20.7480   19.3032   26.2132 H   0  0  0  0  0  0  0  0  0  0  0  0
   22.0619   21.0170   26.4382 C   0  0  0  0  0  0  0  0  0  0  0  0
   22.6029   21.7427   25.8170 H   0  0  0  0  0  0  0  0  0  0  0  0
   22.7998   20.4786   27.0470 H   0  0  0  0  0  0  0  0  0  0  0  0
   21.4051   21.5732   27.1198 H   0  0  0  0  0  0  0  0  0  0  0  0
   18.7420   16.5408   20.1030 C   0  0  0  0  0  0  0  0  0  0  0  0
   18.0377   17.2298   19.6316 H   0  0  0  0  0  0  0  0  0  0  0  0
   19.2543   15.9551   19.3364 H   0  0  0  0  0  0  0  0  0  0  0  0
   18.2078   15.8726   20.7821 H   0  0  0  0  0  0  0  0  0  0  0  0
  1  2  1  0  0  0  0
  1  3  1  0  0  0  0
  1  4  1  0  0  0  0
  4  5  1  0  0  0  0
  4  6  1  0  0  0  0
  4  7  1  0  0  0  0
  7  8  1  0  0  0  0
  7  9  1  0  0  0  0
  7 10  1  0  0  0  0
 10 11  1  0  0  0  0
 10 12  1  0  0  0  0
 10 13  1  0  0  0  0
 13 14  1  0  0  0  0
 13 15  1  0  0  0  0
 13 16  1  0  0  0  0
 16 17  1  0  0  0  0
 16 18  1  0  0  0  0
 16 19  1  0  0  0  0
 19 20  1  0  0  0  0
 19 21  1  0  0  0  0
 19 22  1  0  0  0  0
  1 23  1  0  0  0  0
 23 24  1  0  0  0  0
 23 25  1  0  0  0  0
 23 26  1  0  0  0  0
M  END
> <VConfSearch Rank>
225

> <Conf_Id>
35

> <Delta U+W>
0.670

> <U+W>
22.512

> <U>
71.348

> <W>
-48.837

> <W(PB)>
-51.150

> <W(SA)>
2.313

> <Valence>
2.262

> <Coulomb>
68.807

> <VdW>
0.280

> <VdW6>
-5.915

> <VdW12>
6.195

> <Bond>
0.164

> <Angle>
0.622

> <Pdih>
1.475

> <Idih>
0.000

> <Tether>
0.000

$$$$
VeraChem MOL file


 26 25  0  0  0  0  0  0  0  0999 V2000     
   18.5822   20.7518   25.2655 N   0  3  0  0  0  0  0  0  0  0  0  0
   19.4329   21.0658   25.7580 H   0  0  0  0  0  0  0  0  0  0  0  0
   18.3021   19.8753   25.7326 H   0  0  0  0  0  0  0  0  0  0  0  0
   18.8899   20.4908   23.8046 C   0  0  0  0  0  0  0  0  0  0  0  0
   19.1889   21.4390   23.3507 H   0  0  0  0  0  0  0  0  0  0  0  0
   17.9686   20.1538   23.3229 H   0  0  0  0  0  0  0  0  0  0  0  0
   19.9980   19.4431   23.5934 C   0  0  0  0  0  0  0  0  0  0  0  0
   20.9167   19.7783   24.0928 H   0  0  0  0  0  0  0  0  0  0  0  0
   19.6947   18.5022   24.0693 H   0  0  0  0  0  0  0  0  0  0  0  0
   20.2766   19.2144   22.0889 C   0  0  0  0  0  0  0  0  0  0  0  0
   20.4976   20.1816   21.6163 H   0  0  0  0  0  0  0  0  0  0  0  0
   19.3708   18.8320   21.5982 H   0  0  0  0  0  0  0  0  0  0  0  0
   21.4599   18.2531   21.8161 C   0  0  0  0  0  0  0  0  0  0  0  0
   21.6580   18.2432   20.7353 H   0  0  0  0  0  0  0  0  0  0  0  0
   22.3698   18.6444   22.2918 H   0  0  0  0  0  0  0  0  0  0  0  0
   21.2040   16.8035   22.2930 C   0  0  0  0  0  0  0  0  0  0  0  0
   20.2664   16.4297   21.8583 H   0  0  0  0  0  0  0  0  0  0  0  0
   21.0814   16.7787   23.3839 H   0  0  0  0  0  0  0  0  0  0  0  0
   22.3616   15.8616   21.8984 C   0  0  0  0  0  0  0  0  0  0  0  0
   22.4893   15.8270   20.8086 H   0  0  0  0  0  0  0  0  0  0  0  0
   22.1654   14.8392   22.2466 H   0  0  0  0  0  0  0  0  0  0  0  0
   23.3090   16.1928   22.3433 H   0  0  0  0  0  0  0  0  0  0  0  0
   17.4804   21.7957   25.3844 C   0  0  0  0  0  0  0  0  0  0  0  0
   16.5814   21.4276   24.8851 H   0  0  0  0  0  0  0  0  0  0  0  0
   17.2686   21.9744   26.4409 H   0  0  0  0  0  0  0  0  0  0  0  0
   17.8122   22.7233   24.9127 H   0  0  0  0  0  0  0  0  0  0  0  0
  1  2  1  0  0  0  0
  1  3  1  0  0  0  0
  1  4  1  0  0  0  0
  4  5  1  0  0  0  0
  4  6  1  0  0  0  0
  4  7  1  0  0  0  0
  7  8  1  0  0  0  0
  7  9  1  0  0  0  0
  7 10  1  0  0  0  0
 10 11  1  0  0  0  0
 10 12  1  0  0  0  0
 10 13  1  0  0  0  0
 13 14  1  0  0  0  0
 13 15  1  0  0  0  0
 13 16  1  0  0  0  0
 16 17  1  0  0  0  0
 16 18  1  0  0  0  0
 16 19  1  0  0  0  0
 19 20  1  0  0  0  0
 19 21  1  0  0  0  0
 19 22  1  0  0  0  0
  1 23  1  0  0  0  0
 23 24  1  0  0  0  0
 23 25  1  0  0  0  0
 23 26  1  0  0  0  0
M  END
> <VConfSearch Rank>
226

> <Conf_Id>
36

> <Delta U+W>
0.662

> <U+W>
22.504

> <U>
71.348

> <W>
-48.844

> <W(PB)>
-51.157

> <W(SA)>
2.313

> <Valence>
2.262

> <Coulomb>
68.807

> <VdW>
0.280

> <VdW6>
-5.916

> <VdW12>
6.195

> <Bond>
0.164

> <Angle>
0.622

> <Pdih>
1.475

> <Idih>
0.000

> <Tether>
0.000

$$$$
VeraChem MOL file


 26 25  0  0  0  0  0  0  0  0999 V2000     
   20.0458   19.4202   20.2831 N   0  3  0  0  0  0  0  0  0  0  0  0
   20.0101   20.4514   20.2731 H   0  0  0  0  0  0  0  0  0  0  0  0
   19.1841   19.1112   19.8066 H   0  0  0  0  0  0  0  0  0  0  0  0
   20.0653   18.9113   21.7104 C   0  0  0  0  0  0  0  0  0  0  0  0
   20.9879   19.2646   22.1768 H   0  0  0  0  0  0  0  0  0  0  0  0
   20.0918   17.8193   21.6768 H   0  0  0  0  0  0  0  0  0  0  0  0
   18.8514   19.3748   22.5386 C   0  0  0  0  0  0  0  0  0  0  0  0
   18.8236   20.4722   22.5709 H   0  0  0  0  0  0  0  0  0  0  0  0
   17.9298   19.0517   22.0364 H   0  0  0  0  0  0  0  0  0  0  0  0
   18.8613   18.8124   23.9797 C   0  0  0  0  0  0  0  0  0  0  0  0
   18.8612   17.7140   23.9443 H   0  0  0  0  0  0  0  0  0  0  0  0
   17.9277   19.1067   24.4790 H   0  0  0  0  0  0  0  0  0  0  0  0
   20.0647   19.3079   24.8178 C   0  0  0  0  0  0  0  0  0  0  0  0
   21.0051   18.9781   24.3563 H   0  0  0  0  0  0  0  0  0  0  0  0
   20.0809   20.4066   24.8233 H   0  0  0  0  0  0  0  0  0  0  0  0
   20.0048   18.7878   26.2714 C   0  0  0  0  0  0  0  0  0  0  0  0
   19.9875   17.6888   26.2719 H   0  0  0  0  0  0  0  0  0  0  0  0
   19.0709   19.1194   26.7466 H   0  0  0  0  0  0  0  0  0  0  0  0
   21.2062   19.2812   27.1058 C   0  0  0  0  0  0  0  0  0  0  0  0
   22.1550   18.9355   26.6750 H   0  0  0  0  0  0  0  0  0  0  0  0
   21.1457   18.9022   28.1343 H   0  0  0  0  0  0  0  0  0  0  0  0
   21.2312   20.3777   27.1521 H   0  0  0  0  0  0  0  0  0  0  0  0
   21.2762   18.9210   19.5384 C   0  0  0  0  0  0  0  0  0  0  0  0
   21.2747   17.8287   19.5338 H   0  0  0  0  0  0  0  0  0  0  0  0
   21.2497   19.2942   18.5122 H   0  0  0  0  0  0  0  0  0  0  0  0
   22.1738   19.2878   20.0412 H   0  0  0  0  0  0  0  0  0  0  0  0
  1  2  1  0  0  0  0
  1  3  1  0  0  0  0
  1  4  1  0  0  0  0
  4  5  1  0  0  0  0
  4  6  1  0  0  0  0
  4  7  1  0  0  0  0
  7  8  1  0  0  0  0
  7  9  1  0  0  0  0
  7 10  1  0  0  0  0
 10 11  1  0  0  0  0
 10 12  1  0  0  0  0
 10 13  1  0  0  0  0
 13 14  1  0  0  0  0
 13 15  1  0  0  0  0
 13 16  1  0  0  0  0
 16 17  1  0  0  0  0
 16 18  1  0  0  0  0
 16 19  1  0  0  0  0
 19 20  1  0  0  0  0
 19 21  1  0  0  0  0
 19 22  1  0  0  0  0
  1 23  1  0  0  0  0
 23 24  1  0  0  0  0
 23 25  1  0  0  0  0
 23 26  1  0  0  0  0
M  END
> <VConfSearch Rank>
227

> <Conf_Id>
46

> <Delta U+W>
0.496

> <U+W>
22.338

> <U>
71.138

> <W>
-48.799

> <W(PB)>
-51.136

> <W(SA)>
2.337

> <Valence>
2.016

> <Coulomb>
68.932

> <VdW>
0.190

> <VdW6>
-5.902

> <VdW12>
6.092

> <Bond>
0.149

> <Angle>
0.477

> <Pdih>
1.390

> <Idih>
0.000

> <Tether>
0.000

$$$$
VeraChem MOL file


 26 25  0  0  0  0  0  0  0  0999 V2000     
   21.4662   16.5258   23.8536 N   0  3  0  0  0  0  0  0  0  0  0  0
   21.0124   15.6434   23.5702 H   0  0  0  0  0  0  0  0  0  0  0  0
   21.3777   16.5622   24.8810 H   0  0  0  0  0  0  0  0  0  0  0  0
   20.7531   17.7059   23.2250 C   0  0  0  0  0  0  0  0  0  0  0  0
   20.8610   17.6242   22.1405 H   0  0  0  0  0  0  0  0  0  0  0  0
   21.2610   18.6154   23.5545 H   0  0  0  0  0  0  0  0  0  0  0  0
   19.2586   17.7806   23.5928 C   0  0  0  0  0  0  0  0  0  0  0  0
   18.7688   16.8435   23.2963 H   0  0  0  0  0  0  0  0  0  0  0  0
   19.1501   17.8609   24.6826 H   0  0  0  0  0  0  0  0  0  0  0  0
   18.5334   18.9639   22.9095 C   0  0  0  0  0  0  0  0  0  0  0  0
   17.4613   18.9016   23.1421 H   0  0  0  0  0  0  0  0  0  0  0  0
   18.6202   18.8660   21.8184 H   0  0  0  0  0  0  0  0  0  0  0  0
   19.0711   20.3455   23.3544 C   0  0  0  0  0  0  0  0  0  0  0  0
   19.0138   20.4270   24.4487 H   0  0  0  0  0  0  0  0  0  0  0  0
   20.1311   20.4412   23.0833 H   0  0  0  0  0  0  0  0  0  0  0  0
   18.2778   21.5047   22.7107 C   0  0  0  0  0  0  0  0  0  0  0  0
   17.2159   21.4242   22.9825 H   0  0  0  0  0  0  0  0  0  0  0  0
   18.3311   21.4277   21.6157 H   0  0  0  0  0  0  0  0  0  0  0  0
   18.8160   22.8820   23.1538 C   0  0  0  0  0  0  0  0  0  0  0  0
   18.7444   23.0024   24.2427 H   0  0  0  0  0  0  0  0  0  0  0  0
   18.2401   23.6917   22.6871 H   0  0  0  0  0  0  0  0  0  0  0  0
   19.8676   23.0069   22.8645 H   0  0  0  0  0  0  0  0  0  0  0  0
   22.9323   16.5282   23.4433 C   0  0  0  0  0  0  0  0  0  0  0  0
   23.4341   15.6734   23.9025 H   0  0  0  0  0  0  0  0  0  0  0  0
   23.0011   16.4556   22.3557 H   0  0  0  0  0  0  0  0  0  0  0  0
   23.3988   17.4556   23.7828 H   0  0  0  0  0  0  0  0  0  0  0  0
  1  2  1  0  0  0  0
  1  3  1  0  0  0  0
  1  4  1  0  0  0  0
  4  5  1  0  0  0  0
  4  6  1  0  0  0  0
  4  7  1  0  0  0  0
  7  8  1  0  0  0  0
  7  9  1  0  0  0  0
  7 10  1  0  0  0  0
 10 11  1  0  0  0  0
 10 12  1  0  0  0  0
 10 13  1  0  0  0  0
 13 14  1  0  0  0  0
 13 15  1  0  0  0  0
 13 16  1  0  0  0  0
 16 17  1  0  0  0  0
 16 18  1  0  0  0  0
 16 19  1  0  0  0  0
 19 20  1  0  0  0  0
 19 21  1  0  0  0  0
 19 22  1  0  0  0  0
  1 23  1  0  0  0  0
 23 24  1  0  0  0  0
 23 25  1  0  0  0  0
 23 26  1  0  0  0  0
M  END
> <VConfSearch Rank>
228

> <Conf_Id>
45

> <Delta U+W>
0.471

> <U+W>
22.313

> <U>
71.138

> <W>
-48.825

> <W(PB)>
-51.169

> <W(SA)>
2.344

> <Valence>
2.016

> <Coulomb>
68.932

> <VdW>
0.190

> <VdW6>
-5.902

> <VdW12>
6.092

> <Bond>
0.149

> <Angle>
0.477

> <Pdih>
1.390

> <Idih>
0.000

> <Tether>
0.000

$$$$
VeraChem MOL file


 26 25  0  0  0  0  0  0  0  0999 V2000     
   19.2327   17.5401   21.3823 N   0  3  0  0  0  0  0  0  0  0  0  0
   18.4889   18.2218   21.5952 H   0  0  0  0  0  0  0  0  0  0  0  0
   19.1532   16.8088   22.1058 H   0  0  0  0  0  0  0  0  0  0  0  0
   20.5910   18.2094   21.4638 C   0  0  0  0  0  0  0  0  0  0  0  0
   20.6337   18.9812   20.6912 H   0  0  0  0  0  0  0  0  0  0  0  0
   21.3458   17.4533   21.2330 H   0  0  0  0  0  0  0  0  0  0  0  0
   20.8976   18.8346   22.8389 C   0  0  0  0  0  0  0  0  0  0  0  0
   20.8540   18.0518   23.6066 H   0  0  0  0  0  0  0  0  0  0  0  0
   21.9302   19.2079   22.8278 H   0  0  0  0  0  0  0  0  0  0  0  0
   19.9353   19.9964   23.1922 C   0  0  0  0  0  0  0  0  0  0  0  0
   18.9091   19.6190   23.2952 H   0  0  0  0  0  0  0  0  0  0  0  0
   19.9196   20.7124   22.3586 H   0  0  0  0  0  0  0  0  0  0  0  0
   20.3318   20.7549   24.4828 C   0  0  0  0  0  0  0  0  0  0  0  0
   21.3492   21.1561   24.3769 H   0  0  0  0  0  0  0  0  0  0  0  0
   19.6686   21.6241   24.5937 H   0  0  0  0  0  0  0  0  0  0  0  0
   20.2431   19.8885   25.7617 C   0  0  0  0  0  0  0  0  0  0  0  0
   20.9549   19.0542   25.7049 H   0  0  0  0  0  0  0  0  0  0  0  0
   19.2401   19.4469   25.8423 H   0  0  0  0  0  0  0  0  0  0  0  0
   20.5412   20.7150   27.0310 C   0  0  0  0  0  0  0  0  0  0  0  0
   21.5503   21.1456   26.9937 H   0  0  0  0  0  0  0  0  0  0  0  0
   20.4769   20.0850   27.9277 H   0  0  0  0  0  0  0  0  0  0  0  0
   19.8227   21.5371   27.1453 H   0  0  0  0  0  0  0  0  0  0  0  0
   19.0302   16.9450   19.9958 C   0  0  0  0  0  0  0  0  0  0  0  0
   19.8101   16.2044   19.8056 H   0  0  0  0  0  0  0  0  0  0  0  0
   18.0490   16.4673   19.9507 H   0  0  0  0  0  0  0  0  0  0  0  0
   19.0871   17.7420   19.2511 H   0  0  0  0  0  0  0  0  0  0  0  0
  1  2  1  0  0  0  0
  1  3  1  0  0  0  0
  1  4  1  0  0  0  0
  4  5  1  0  0  0  0
  4  6  1  0  0  0  0
  4  7  1  0  0  0  0
  7  8  1  0  0  0  0
  7  9  1  0  0  0  0
  7 10  1  0  0  0  0
 10 11  1  0  0  0  0
 10 12  1  0  0  0  0
 10 13  1  0  0  0  0
 13 14  1  0  0  0  0
 13 15  1  0  0  0  0
 13 16  1  0  0  0  0
 16 17  1  0  0  0  0
 16 18  1  0  0  0  0
 16 19  1  0  0  0  0
 19 20  1  0  0  0  0
 19 21  1  0  0  0  0
 19 22  1  0  0  0  0
  1 23  1  0  0  0  0
 23 24  1  0  0  0  0
 23 25  1  0  0  0  0
 23 26  1  0  0  0  0
M  END
> <VConfSearch Rank>
229

> <Conf_Id>
143

> <Delta U+W>
0.915

> <U+W>
22.757

> <U>
71.994

> <W>
-49.237

> <W(PB)>
-51.537

> <W(SA)>
2.300

> <Valence>
2.376

> <Coulomb>
69.315

> <VdW>
0.303

> <VdW6>
-6.508

> <VdW12>
6.810

> <Bond>
0.182

> <Angle>
0.660

> <Pdih>
1.534

> <Idih>
0.000

> <Tether>
0.000

$$$$
VeraChem MOL file


 26 25  0  0  0  0  0  0  0  0999 V2000     
   22.1087   18.6752   21.7977 N   0  3  0  0  0  0  0  0  0  0  0  0
   21.6012   19.3760   21.2369 H   0  0  0  0  0  0  0  0  0  0  0  0
   21.7686   17.7586   21.4679 H   0  0  0  0  0  0  0  0  0  0  0  0
   21.7874   18.8522   23.2693 C   0  0  0  0  0  0  0  0  0  0  0  0
   22.1522   19.8347   23.5794 H   0  0  0  0  0  0  0  0  0  0  0  0
   22.3460   18.0915   23.8206 H   0  0  0  0  0  0  0  0  0  0  0  0
   20.2880   18.7257   23.6044 C   0  0  0  0  0  0  0  0  0  0  0  0
   19.9166   17.7498   23.2649 H   0  0  0  0  0  0  0  0  0  0  0  0
   20.1866   18.7445   24.6964 H   0  0  0  0  0  0  0  0  0  0  0  0
   19.4388   19.8648   22.9892 C   0  0  0  0  0  0  0  0  0  0  0  0
   19.6213   19.9145   21.9077 H   0  0  0  0  0  0  0  0  0  0  0  0
   19.7714   20.8285   23.3993 H   0  0  0  0  0  0  0  0  0  0  0  0
   17.9109   19.7128   23.2074 C   0  0  0  0  0  0  0  0  0  0  0  0
   17.4193   20.5498   22.6924 H   0  0  0  0  0  0  0  0  0  0  0  0
   17.5464   18.8047   22.7076 H   0  0  0  0  0  0  0  0  0  0  0  0
   17.4582   19.7273   24.6905 C   0  0  0  0  0  0  0  0  0  0  0  0
   16.4901   20.2437   24.7558 H   0  0  0  0  0  0  0  0  0  0  0  0
   18.1568   20.3193   25.2980 H   0  0  0  0  0  0  0  0  0  0  0  0
   17.2846   18.3136   25.2936 C   0  0  0  0  0  0  0  0  0  0  0  0
   18.2188   17.7416   25.2825 H   0  0  0  0  0  0  0  0  0  0  0  0
   16.5317   17.7403   24.7373 H   0  0  0  0  0  0  0  0  0  0  0  0
   16.9479   18.3797   26.3363 H   0  0  0  0  0  0  0  0  0  0  0  0
   23.6096   18.8001   21.5762 C   0  0  0  0  0  0  0  0  0  0  0  0
   24.1232   18.0286   22.1540 H   0  0  0  0  0  0  0  0  0  0  0  0
   23.8269   18.6710   20.5135 H   0  0  0  0  0  0  0  0  0  0  0  0
   23.9398   19.7886   21.9029 H   0  0  0  0  0  0  0  0  0  0  0  0
  1  2  1  0  0  0  0
  1  3  1  0  0  0  0
  1  4  1  0  0  0  0
  4  5  1  0  0  0  0
  4  6  1  0  0  0  0
  4  7  1  0  0  0  0
  7  8  1  0  0  0  0
  7  9  1  0  0  0  0
  7 10  1  0  0  0  0
 10 11  1  0  0  0  0
 10 12  1  0  0  0  0
 10 13  1  0  0  0  0
 13 14  1  0  0  0  0
 13 15  1  0  0  0  0
 13 16  1  0  0  0  0
 16 17  1  0  0  0  0
 16 18  1  0  0  0  0
 16 19  1  0  0  0  0
 19 20  1  0  0  0  0
 19 21  1  0  0  0  0
 19 22  1  0  0  0  0
  1 23  1  0  0  0  0
 23 24  1  0  0  0  0
 23 25  1  0  0  0  0
 23 26  1  0  0  0  0
M  END
> <VConfSearch Rank>
230

> <Conf_Id>
76

> <Delta U+W>
3.468

> <U+W>
25.310

> <U>
74.594

> <W>
-49.283

> <W(PB)>
-51.537

> <W(SA)>
2.253

> <Valence>
4.886

> <Coulomb>
69.332

> <VdW>
0.376

> <VdW6>
-7.329

> <VdW12>
7.705

> <Bond>
0.232

> <Angle>
1.251

> <Pdih>
3.403

> <Idih>
0.000

> <Tether>
0.000

$$$$
VeraChem MOL file


 26 25  0  0  0  0  0  0  0  0999 V2000     
   18.5320   16.7993   23.4646 N   0  3  0  0  0  0  0  0  0  0  0  0
   18.4294   16.9333   22.4467 H   0  0  0  0  0  0  0  0  0  0  0  0
   17.6642   17.1729   23.8797 H   0  0  0  0  0  0  0  0  0  0  0  0
   19.7311   17.5723   23.9760 C   0  0  0  0  0  0  0  0  0  0  0  0
   20.6251   17.1520   23.5086 H   0  0  0  0  0  0  0  0  0  0  0  0
   19.7985   17.4112   25.0549 H   0  0  0  0  0  0  0  0  0  0  0  0
   19.6539   19.0813   23.6815 C   0  0  0  0  0  0  0  0  0  0  0  0
   19.5608   19.2328   22.6003 H   0  0  0  0  0  0  0  0  0  0  0  0
   18.7451   19.4939   24.1394 H   0  0  0  0  0  0  0  0  0  0  0  0
   20.8938   19.8264   24.2319 C   0  0  0  0  0  0  0  0  0  0  0  0
   21.8160   19.3865   23.8278 H   0  0  0  0  0  0  0  0  0  0  0  0
   20.9329   19.6667   25.3186 H   0  0  0  0  0  0  0  0  0  0  0  0
   20.8692   21.3537   23.9612 C   0  0  0  0  0  0  0  0  0  0  0  0
   19.8334   21.7187   23.9258 H   0  0  0  0  0  0  0  0  0  0  0  0
   21.3315   21.8605   24.8196 H   0  0  0  0  0  0  0  0  0  0  0  0
   21.6353   21.8004   22.6895 C   0  0  0  0  0  0  0  0  0  0  0  0
   22.6948   21.5233   22.7812 H   0  0  0  0  0  0  0  0  0  0  0  0
   21.6123   22.8979   22.6370 H   0  0  0  0  0  0  0  0  0  0  0  0
   21.0692   21.2303   21.3705 C   0  0  0  0  0  0  0  0  0  0  0  0
   19.9942   21.4327   21.2797 H   0  0  0  0  0  0  0  0  0  0  0  0
   21.2292   20.1473   21.3031 H   0  0  0  0  0  0  0  0  0  0  0  0
   21.5708   21.6888   20.5084 H   0  0  0  0  0  0  0  0  0  0  0  0
   18.6889   15.3216   23.7954 C   0  0  0  0  0  0  0  0  0  0  0  0
   19.5951   14.9411   23.3189 H   0  0  0  0  0  0  0  0  0  0  0  0
   18.7621   15.2018   24.8786 H   0  0  0  0  0  0  0  0  0  0  0  0
   17.8191   14.7766   23.4220 H   0  0  0  0  0  0  0  0  0  0  0  0
  1  2  1  0  0  0  0
  1  3  1  0  0  0  0
  1  4  1  0  0  0  0
  4  5  1  0  0  0  0
  4  6  1  0  0  0  0
  4  7  1  0  0  0  0
  7  8  1  0  0  0  0
  7  9  1  0  0  0  0
  7 10  1  0  0  0  0
 10 11  1  0  0  0  0
 10 12  1  0  0  0  0
 10 13  1  0  0  0  0
 13 14  1  0  0  0  0
 13 15  1  0  0  0  0
 13 16  1  0  0  0  0
 16 17  1  0  0  0  0
 16 18  1  0  0  0  0
 16 19  1  0  0  0  0
 19 20  1  0  0  0  0
 19 21  1  0  0  0  0
 19 22  1  0  0  0  0
  1 23  1  0  0  0  0
 23 24  1  0  0  0  0
 23 25  1  0  0  0  0
 23 26  1  0  0  0  0
M  END
> <VConfSearch Rank>
231

> <Conf_Id>
123

> <Delta U+W>
3.101

> <U+W>
24.943

> <U>
74.070

> <W>
-49.127

> <W(PB)>
-51.421

> <W(SA)>
2.295

> <Valence>
4.690

> <Coulomb>
69.115

> <VdW>
0.266

> <VdW6>
-6.809

> <VdW12>
7.075

> <Bond>
0.212

> <Angle>
1.133

> <Pdih>
3.345

> <Idih>
0.000

> <Tether>
0.000

$$$$
VeraChem MOL file


 26 25  0  0  0  0  0  0  0  0999 V2000     
   21.9365   19.0255   25.2041 N   0  3  0  0  0  0  0  0  0  0  0  0
   21.6066   18.2665   25.8203 H   0  0  0  0  0  0  0  0  0  0  0  0
   21.3633   19.8475   25.4468 H   0  0  0  0  0  0  0  0  0  0  0  0
   21.7191   18.6495   23.7511 C   0  0  0  0  0  0  0  0  0  0  0  0
   22.3440   17.7782   23.5394 H   0  0  0  0  0  0  0  0  0  0  0  0
   22.0696   19.4791   23.1319 H   0  0  0  0  0  0  0  0  0  0  0  0
   20.2537   18.3243   23.4003 C   0  0  0  0  0  0  0  0  0  0  0  0
   20.2220   17.9607   22.3671 H   0  0  0  0  0  0  0  0  0  0  0  0
   19.9041   17.4944   24.0287 H   0  0  0  0  0  0  0  0  0  0  0  0
   19.3139   19.5455   23.5688 C   0  0  0  0  0  0  0  0  0  0  0  0
   19.7093   20.4112   23.0196 H   0  0  0  0  0  0  0  0  0  0  0  0
   19.3042   19.8355   24.6279 H   0  0  0  0  0  0  0  0  0  0  0  0
   17.8526   19.2620   23.1326 C   0  0  0  0  0  0  0  0  0  0  0  0
   17.6100   18.2002   23.2773 H   0  0  0  0  0  0  0  0  0  0  0  0
   17.1812   19.8125   23.8062 H   0  0  0  0  0  0  0  0  0  0  0  0
   17.5134   19.6937   21.6827 C   0  0  0  0  0  0  0  0  0  0  0  0
   17.6614   20.7776   21.5770 H   0  0  0  0  0  0  0  0  0  0  0  0
   16.4433   19.5151   21.5073 H   0  0  0  0  0  0  0  0  0  0  0  0
   18.3230   18.9578   20.5926 C   0  0  0  0  0  0  0  0  0  0  0  0
   18.2426   17.8690   20.7061 H   0  0  0  0  0  0  0  0  0  0  0  0
   19.3834   19.2364   20.6268 H   0  0  0  0  0  0  0  0  0  0  0  0
   17.9482   19.2194   19.5946 H   0  0  0  0  0  0  0  0  0  0  0  0
   23.4112   19.3118   25.4504 C   0  0  0  0  0  0  0  0  0  0  0  0
   23.7283   20.1383   24.8107 H   0  0  0  0  0  0  0  0  0  0  0  0
   23.5535   19.5814   26.4993 H   0  0  0  0  0  0  0  0  0  0  0  0
   23.9943   18.4183   25.2169 H   0  0  0  0  0  0  0  0  0  0  0  0
  1  2  1  0  0  0  0
  1  3  1  0  0  0  0
  1  4  1  0  0  0  0
  4  5  1  0  0  0  0
  4  6  1  0  0  0  0
  4  7  1  0  0  0  0
  7  8  1  0  0  0  0
  7  9  1  0  0  0  0
  7 10  1  0  0  0  0
 10 11  1  0  0  0  0
 10 12  1  0  0  0  0
 10 13  1  0  0  0  0
 13 14  1  0  0  0  0
 13 15  1  0  0  0  0
 13 16  1  0  0  0  0
 16 17  1  0  0  0  0
 16 18  1  0  0  0  0
 16 19  1  0  0  0  0
 19 20  1  0  0  0  0
 19 21  1  0  0  0  0
 19 22  1  0  0  0  0
  1 23  1  0  0  0  0
 23 24  1  0  0  0  0
 23 25  1  0  0  0  0
 23 26  1  0  0  0  0
M  END
> <VConfSearch Rank>
232

> <Conf_Id>
111

> <Delta U+W>
3.383

> <U+W>
25.225

> <U>
74.516

> <W>
-49.292

> <W(PB)>
-51.558

> <W(SA)>
2.266

> <Valence>
4.842

> <Coulomb>
69.333

> <VdW>
0.342

> <VdW6>
-7.369

> <VdW12>
7.711

> <Bond>
0.232

> <Angle>
1.153

> <Pdih>
3.457

> <Idih>
0.000

> <Tether>
0.000

$$$$
VeraChem MOL file


 26 25  0  0  0  0  0  0  0  0999 V2000     
   18.2186   20.0897   24.5113 N   0  3  0  0  0  0  0  0  0  0  0  0
   17.3841   20.3263   23.9526 H   0  0  0  0  0  0  0  0  0  0  0  0
   18.9909   20.6354   24.1004 H   0  0  0  0  0  0  0  0  0  0  0  0
   18.5166   18.6073   24.4014 C   0  0  0  0  0  0  0  0  0  0  0  0
   17.6720   18.0667   24.8360 H   0  0  0  0  0  0  0  0  0  0  0  0
   19.4013   18.3959   25.0066 H   0  0  0  0  0  0  0  0  0  0  0  0
   18.7451   18.1219   22.9548 C   0  0  0  0  0  0  0  0  0  0  0  0
   18.9058   17.0357   22.9697 H   0  0  0  0  0  0  0  0  0  0  0  0
   17.8287   18.2868   22.3727 H   0  0  0  0  0  0  0  0  0  0  0  0
   19.9370   18.8043   22.2366 C   0  0  0  0  0  0  0  0  0  0  0  0
   19.7477   19.8814   22.1374 H   0  0  0  0  0  0  0  0  0  0  0  0
   19.9887   18.4087   21.2140 H   0  0  0  0  0  0  0  0  0  0  0  0
   21.2934   18.5738   22.9507 C   0  0  0  0  0  0  0  0  0  0  0  0
   21.2355   18.9478   23.9814 H   0  0  0  0  0  0  0  0  0  0  0  0
   21.4946   17.4961   23.0242 H   0  0  0  0  0  0  0  0  0  0  0  0
   22.4843   19.2744   22.2525 C   0  0  0  0  0  0  0  0  0  0  0  0
   23.3782   19.1583   22.8813 H   0  0  0  0  0  0  0  0  0  0  0  0
   22.2941   20.3548   22.1868 H   0  0  0  0  0  0  0  0  0  0  0  0
   22.7917   18.7137   20.8451 C   0  0  0  0  0  0  0  0  0  0  0  0
   21.9759   18.9187   20.1411 H   0  0  0  0  0  0  0  0  0  0  0  0
   22.9533   17.6284   20.8788 H   0  0  0  0  0  0  0  0  0  0  0  0
   23.7007   19.1753   20.4383 H   0  0  0  0  0  0  0  0  0  0  0  0
   18.0121   20.4707   25.9705 C   0  0  0  0  0  0  0  0  0  0  0  0
   17.7996   21.5402   26.0350 H   0  0  0  0  0  0  0  0  0  0  0  0
   17.1712   19.9026   26.3743 H   0  0  0  0  0  0  0  0  0  0  0  0
   18.9191   20.2402   26.5337 H   0  0  0  0  0  0  0  0  0  0  0  0
  1  2  1  0  0  0  0
  1  3  1  0  0  0  0
  1  4  1  0  0  0  0
  4  5  1  0  0  0  0
  4  6  1  0  0  0  0
  4  7  1  0  0  0  0
  7  8  1  0  0  0  0
  7  9  1  0  0  0  0
  7 10  1  0  0  0  0
 10 11  1  0  0  0  0
 10 12  1  0  0  0  0
 10 13  1  0  0  0  0
 13 14  1  0  0  0  0
 13 15  1  0  0  0  0
 13 16  1  0  0  0  0
 16 17  1  0  0  0  0
 16 18  1  0  0  0  0
 16 19  1  0  0  0  0
 19 20  1  0  0  0  0
 19 21  1  0  0  0  0
 19 22  1  0  0  0  0
  1 23  1  0  0  0  0
 23 24  1  0  0  0  0
 23 25  1  0  0  0  0
 23 26  1  0  0  0  0
M  END
> <VConfSearch Rank>
233

> <Conf_Id>
126

> <Delta U+W>
1.519

> <U+W>
23.361

> <U>
72.579

> <W>
-49.218

> <W(PB)>
-51.496

> <W(SA)>
2.279

> <Valence>
2.678

> <Coulomb>
69.622

> <VdW>
0.279

> <VdW6>
-7.328

> <VdW12>
7.608

> <Bond>
0.212

> <Angle>
0.911

> <Pdih>
1.555

> <Idih>
0.000

> <Tether>
0.000

$$$$
VeraChem MOL file


 26 25  0  0  0  0  0  0  0  0999 V2000     
   17.8716   18.1725   23.5337 N   0  3  0  0  0  0  0  0  0  0  0  0
   18.5363   18.3006   24.3114 H   0  0  0  0  0  0  0  0  0  0  0  0
   17.8141   17.1533   23.3832 H   0  0  0  0  0  0  0  0  0  0  0  0
   18.3971   18.8549   22.2859 C   0  0  0  0  0  0  0  0  0  0  0  0
   18.4404   19.9287   22.4824 H   0  0  0  0  0  0  0  0  0  0  0  0
   17.6719   18.6860   21.4859 H   0  0  0  0  0  0  0  0  0  0  0  0
   19.7834   18.3500   21.8350 C   0  0  0  0  0  0  0  0  0  0  0  0
   19.7122   17.2831   21.5849 H   0  0  0  0  0  0  0  0  0  0  0  0
   20.0591   18.8637   20.9044 H   0  0  0  0  0  0  0  0  0  0  0  0
   20.9063   18.5556   22.8833 C   0  0  0  0  0  0  0  0  0  0  0  0
   21.8345   18.1373   22.4730 H   0  0  0  0  0  0  0  0  0  0  0  0
   20.6844   17.9752   23.7887 H   0  0  0  0  0  0  0  0  0  0  0  0
   21.1288   20.0438   23.2558 C   0  0  0  0  0  0  0  0  0  0  0  0
   21.3784   20.6181   22.3530 H   0  0  0  0  0  0  0  0  0  0  0  0
   20.1945   20.4702   23.6442 H   0  0  0  0  0  0  0  0  0  0  0  0
   22.2313   20.2539   24.3221 C   0  0  0  0  0  0  0  0  0  0  0  0
   21.9810   19.6914   25.2324 H   0  0  0  0  0  0  0  0  0  0  0  0
   22.2437   21.3143   24.6108 H   0  0  0  0  0  0  0  0  0  0  0  0
   23.6438   19.8558   23.8363 C   0  0  0  0  0  0  0  0  0  0  0  0
   23.9050   20.3804   22.9081 H   0  0  0  0  0  0  0  0  0  0  0  0
   23.7198   18.7766   23.6550 H   0  0  0  0  0  0  0  0  0  0  0  0
   24.3969   20.1160   24.5914 H   0  0  0  0  0  0  0  0  0  0  0  0
   16.5063   18.7381   23.8986 C   0  0  0  0  0  0  0  0  0  0  0  0
   16.5995   19.8105   24.0835 H   0  0  0  0  0  0  0  0  0  0  0  0
   15.8131   18.5638   23.0727 H   0  0  0  0  0  0  0  0  0  0  0  0
   16.1406   18.2389   24.7987 H   0  0  0  0  0  0  0  0  0  0  0  0
  1  2  1  0  0  0  0
  1  3  1  0  0  0  0
  1  4  1  0  0  0  0
  4  5  1  0  0  0  0
  4  6  1  0  0  0  0
  4  7  1  0  0  0  0
  7  8  1  0  0  0  0
  7  9  1  0  0  0  0
  7 10  1  0  0  0  0
 10 11  1  0  0  0  0
 10 12  1  0  0  0  0
 10 13  1  0  0  0  0
 13 14  1  0  0  0  0
 13 15  1  0  0  0  0
 13 16  1  0  0  0  0
 16 17  1  0  0  0  0
 16 18  1  0  0  0  0
 16 19  1  0  0  0  0
 19 20  1  0  0  0  0
 19 21  1  0  0  0  0
 19 22  1  0  0  0  0
  1 23  1  0  0  0  0
 23 24  1  0  0  0  0
 23 25  1  0  0  0  0
 23 26  1  0  0  0  0
M  END
> <VConfSearch Rank>
234

> <Conf_Id>
134

> <Delta U+W>
1.464

> <U+W>
23.306

> <U>
72.579

> <W>
-49.273

> <W(PB)>
-51.540

> <W(SA)>
2.267

> <Valence>
2.677

> <Coulomb>
69.622

> <VdW>
0.280

> <VdW6>
-7.328

> <VdW12>
7.608

> <Bond>
0.212

> <Angle>
0.911

> <Pdih>
1.555

> <Idih>
0.000

> <Tether>
0.000

$$$$
VeraChem MOL file


 26 25  0  0  0  0  0  0  0  0999 V2000     
   19.7885   21.8517   23.0953 N   0  3  0  0  0  0  0  0  0  0  0  0
   19.8226   21.6887   22.0769 H   0  0  0  0  0  0  0  0  0  0  0  0
   20.7308   22.1853   23.3517 H   0  0  0  0  0  0  0  0  0  0  0  0
   19.4758   20.5590   23.8219 C   0  0  0  0  0  0  0  0  0  0  0  0
   18.4768   20.2367   23.5178 H   0  0  0  0  0  0  0  0  0  0  0  0
   19.4574   20.7729   24.8935 H   0  0  0  0  0  0  0  0  0  0  0  0
   20.4912   19.4382   23.5348 C   0  0  0  0  0  0  0  0  0  0  0  0
   20.5144   19.2450   22.4549 H   0  0  0  0  0  0  0  0  0  0  0  0
   21.4958   19.7717   23.8269 H   0  0  0  0  0  0  0  0  0  0  0  0
   20.1303   18.1423   24.2983 C   0  0  0  0  0  0  0  0  0  0  0  0
   19.1421   17.7857   23.9785 H   0  0  0  0  0  0  0  0  0  0  0  0
   20.0351   18.3737   25.3684 H   0  0  0  0  0  0  0  0  0  0  0  0
   21.1798   17.0123   24.1349 C   0  0  0  0  0  0  0  0  0  0  0  0
   22.1346   17.3467   24.5634 H   0  0  0  0  0  0  0  0  0  0  0  0
   20.8658   16.1500   24.7391 H   0  0  0  0  0  0  0  0  0  0  0  0
   21.4243   16.5404   22.6785 C   0  0  0  0  0  0  0  0  0  0  0  0
   22.1822   15.7446   22.6919 H   0  0  0  0  0  0  0  0  0  0  0  0
   21.8567   17.3552   22.0825 H   0  0  0  0  0  0  0  0  0  0  0  0
   20.1522   16.0037   21.9838 C   0  0  0  0  0  0  0  0  0  0  0  0
   19.6909   15.1996   22.5716 H   0  0  0  0  0  0  0  0  0  0  0  0
   20.3969   15.5978   20.9937 H   0  0  0  0  0  0  0  0  0  0  0  0
   19.4072   16.7962   21.8404 H   0  0  0  0  0  0  0  0  0  0  0  0
   18.7399   22.9026   23.4330 C   0  0  0  0  0  0  0  0  0  0  0  0
   18.7454   23.0821   24.5104 H   0  0  0  0  0  0  0  0  0  0  0  0
   18.9769   23.8282   22.9036 H   0  0  0  0  0  0  0  0  0  0  0  0
   17.7568   22.5416   23.1229 H   0  0  0  0  0  0  0  0  0  0  0  0
  1  2  1  0  0  0  0
  1  3  1  0  0  0  0
  1  4  1  0  0  0  0
  4  5  1  0  0  0  0
  4  6  1  0  0  0  0
  4  7  1  0  0  0  0
  7  8  1  0  0  0  0
  7  9  1  0  0  0  0
  7 10  1  0  0  0  0
 10 11  1  0  0  0  0
 10 12  1  0  0  0  0
 10 13  1  0  0  0  0
 13 14  1  0  0  0  0
 13 15  1  0  0  0  0
 13 16  1  0  0  0  0
 16 17  1  0  0  0  0
 16 18  1  0  0  0  0
 16 19  1  0  0  0  0
 19 20  1  0  0  0  0
 19 21  1  0  0  0  0
 19 22  1  0  0  0  0
  1 23  1  0  0  0  0
 23 24  1  0  0  0  0
 23 25  1  0  0  0  0
 23 26  1  0  0  0  0
M  END
> <VConfSearch Rank>
235

> <Conf_Id>
30

> <Delta U+W>
0.910

> <U+W>
22.752

> <U>
71.870

> <W>
-49.118

> <W(PB)>
-51.409

> <W(SA)>
2.290

> <Valence>
2.682

> <Coulomb>
68.933

> <VdW>
0.255

> <VdW6>
-6.833

> <VdW12>
7.088

> <Bond>
0.205

> <Angle>
1.003

> <Pdih>
1.473

> <Idih>
0.000

> <Tether>
0.000

$$$$
VeraChem MOL file


 26 25  0  0  0  0  0  0  0  0999 V2000     
   19.0584   20.2016   25.7071 N   0  3  0  0  0  0  0  0  0  0  0  0
   19.6159   21.0692   25.7430 H   0  0  0  0  0  0  0  0  0  0  0  0
   19.6350   19.4850   26.1748 H   0  0  0  0  0  0  0  0  0  0  0  0
   18.7986   19.8063   24.2673 C   0  0  0  0  0  0  0  0  0  0  0  0
   18.1944   20.5925   23.8077 H   0  0  0  0  0  0  0  0  0  0  0  0
   18.2147   18.8824   24.2733 H   0  0  0  0  0  0  0  0  0  0  0  0
   20.0870   19.5991   23.4508 C   0  0  0  0  0  0  0  0  0  0  0  0
   20.6783   20.5243   23.4603 H   0  0  0  0  0  0  0  0  0  0  0  0
   20.6935   18.8211   23.9315 H   0  0  0  0  0  0  0  0  0  0  0  0
   19.7701   19.1987   21.9907 C   0  0  0  0  0  0  0  0  0  0  0  0
   19.0986   19.9502   21.5527 H   0  0  0  0  0  0  0  0  0  0  0  0
   19.2123   18.2528   21.9776 H   0  0  0  0  0  0  0  0  0  0  0  0
   21.0281   19.0845   21.0910 C   0  0  0  0  0  0  0  0  0  0  0  0
   20.7088   18.8381   20.0689 H   0  0  0  0  0  0  0  0  0  0  0  0
   21.5107   20.0694   21.0249 H   0  0  0  0  0  0  0  0  0  0  0  0
   22.0801   18.0431   21.5515 C   0  0  0  0  0  0  0  0  0  0  0  0
   22.5060   18.3359   22.5204 H   0  0  0  0  0  0  0  0  0  0  0  0
   22.9179   18.0551   20.8404 H   0  0  0  0  0  0  0  0  0  0  0  0
   21.5235   16.6038   21.6395 C   0  0  0  0  0  0  0  0  0  0  0  0
   20.7614   16.5143   22.4236 H   0  0  0  0  0  0  0  0  0  0  0  0
   22.3268   15.8947   21.8775 H   0  0  0  0  0  0  0  0  0  0  0  0
   21.0748   16.2952   20.6864 H   0  0  0  0  0  0  0  0  0  0  0  0
   17.7369   20.3854   26.4404 C   0  0  0  0  0  0  0  0  0  0  0  0
   17.9381   20.6699   27.4756 H   0  0  0  0  0  0  0  0  0  0  0  0
   17.1590   21.1705   25.9477 H   0  0  0  0  0  0  0  0  0  0  0  0
   17.1798   19.4462   26.4176 H   0  0  0  0  0  0  0  0  0  0  0  0
  1  2  1  0  0  0  0
  1  3  1  0  0  0  0
  1  4  1  0  0  0  0
  4  5  1  0  0  0  0
  4  6  1  0  0  0  0
  4  7  1  0  0  0  0
  7  8  1  0  0  0  0
  7  9  1  0  0  0  0
  7 10  1  0  0  0  0
 10 11  1  0  0  0  0
 10 12  1  0  0  0  0
 10 13  1  0  0  0  0
 13 14  1  0  0  0  0
 13 15  1  0  0  0  0
 13 16  1  0  0  0  0
 16 17  1  0  0  0  0
 16 18  1  0  0  0  0
 16 19  1  0  0  0  0
 19 20  1  0  0  0  0
 19 21  1  0  0  0  0
 19 22  1  0  0  0  0
  1 23  1  0  0  0  0
 23 24  1  0  0  0  0
 23 25  1  0  0  0  0
 23 26  1  0  0  0  0
M  END
> <VConfSearch Rank>
236

> <Conf_Id>
29

> <Delta U+W>
0.886

> <U+W>
22.729

> <U>
71.870

> <W>
-49.141

> <W(PB)>
-51.404

> <W(SA)>
2.262

> <Valence>
2.682

> <Coulomb>
68.933

> <VdW>
0.255

> <VdW6>
-6.833

> <VdW12>
7.088

> <Bond>
0.205

> <Angle>
1.003

> <Pdih>
1.473

> <Idih>
0.000

> <Tether>
0.000

$$$$
VeraChem MOL file


 26 25  0  0  0  0  0  0  0  0999 V2000     
   19.6895   16.7221   24.4413 N   0  3  0  0  0  0  0  0  0  0  0  0
   18.8974   16.1534   24.1039 H   0  0  0  0  0  0  0  0  0  0  0  0
   19.3244   17.2497   25.2493 H   0  0  0  0  0  0  0  0  0  0  0  0
   20.1472   17.6763   23.3567 C   0  0  0  0  0  0  0  0  0  0  0  0
   20.5132   17.0799   22.5172 H   0  0  0  0  0  0  0  0  0  0  0  0
   20.9811   18.2588   23.7555 H   0  0  0  0  0  0  0  0  0  0  0  0
   19.0355   18.6261   22.8718 C   0  0  0  0  0  0  0  0  0  0  0  0
   18.1881   18.0309   22.5063 H   0  0  0  0  0  0  0  0  0  0  0  0
   18.6567   19.2147   23.7170 H   0  0  0  0  0  0  0  0  0  0  0  0
   19.5090   19.5703   21.7389 C   0  0  0  0  0  0  0  0  0  0  0  0
   18.6694   20.2054   21.4263 H   0  0  0  0  0  0  0  0  0  0  0  0
   19.7665   18.9662   20.8580 H   0  0  0  0  0  0  0  0  0  0  0  0
   20.7277   20.4620   22.1007 C   0  0  0  0  0  0  0  0  0  0  0  0
   21.6123   19.8282   22.2494 H   0  0  0  0  0  0  0  0  0  0  0  0
   20.9641   21.0994   21.2376 H   0  0  0  0  0  0  0  0  0  0  0  0
   20.5396   21.3611   23.3492 C   0  0  0  0  0  0  0  0  0  0  0  0
   21.4644   21.9320   23.5120 H   0  0  0  0  0  0  0  0  0  0  0  0
   20.4071   20.7423   24.2468 H   0  0  0  0  0  0  0  0  0  0  0  0
   19.3602   22.3516   23.2194 C   0  0  0  0  0  0  0  0  0  0  0  0
   19.3220   23.0205   24.0889 H   0  0  0  0  0  0  0  0  0  0  0  0
   18.3982   21.8271   23.1637 H   0  0  0  0  0  0  0  0  0  0  0  0
   19.4649   22.9741   22.3214 H   0  0  0  0  0  0  0  0  0  0  0  0
   20.8462   15.8281   24.8660 C   0  0  0  0  0  0  0  0  0  0  0  0
   20.5034   15.1456   25.6469 H   0  0  0  0  0  0  0  0  0  0  0  0
   21.1937   15.2561   24.0028 H   0  0  0  0  0  0  0  0  0  0  0  0
   21.6584   16.4495   25.2496 H   0  0  0  0  0  0  0  0  0  0  0  0
  1  2  1  0  0  0  0
  1  3  1  0  0  0  0
  1  4  1  0  0  0  0
  4  5  1  0  0  0  0
  4  6  1  0  0  0  0
  4  7  1  0  0  0  0
  7  8  1  0  0  0  0
  7  9  1  0  0  0  0
  7 10  1  0  0  0  0
 10 11  1  0  0  0  0
 10 12  1  0  0  0  0
 10 13  1  0  0  0  0
 13 14  1  0  0  0  0
 13 15  1  0  0  0  0
 13 16  1  0  0  0  0
 16 17  1  0  0  0  0
 16 18  1  0  0  0  0
 16 19  1  0  0  0  0
 19 20  1  0  0  0  0
 19 21  1  0  0  0  0
 19 22  1  0  0  0  0
  1 23  1  0  0  0  0
 23 24  1  0  0  0  0
 23 25  1  0  0  0  0
 23 26  1  0  0  0  0
M  END
> <VConfSearch Rank>
237

> <Conf_Id>
82

> <Delta U+W>
1.026

> <U+W>
22.868

> <U>
72.455

> <W>
-49.586

> <W(PB)>
-51.821

> <W(SA)>
2.234

> <Valence>
2.908

> <Coulomb>
69.435

> <VdW>
0.112

> <VdW6>
-7.765

> <VdW12>
7.877

> <Bond>
0.233

> <Angle>
1.170

> <Pdih>
1.506

> <Idih>
0.000

> <Tether>
0.000

$$$$
VeraChem MOL file


 26 25  0  0  0  0  0  0  0  0999 V2000     
   19.6743   16.9299   21.8561 N   0  3  0  0  0  0  0  0  0  0  0  0
   20.0662   17.4743   21.0721 H   0  0  0  0  0  0  0  0  0  0  0  0
   18.6924   16.7447   21.5983 H   0  0  0  0  0  0  0  0  0  0  0  0
   19.7350   17.7380   23.1365 C   0  0  0  0  0  0  0  0  0  0  0  0
   20.7879   17.9136   23.3701 H   0  0  0  0  0  0  0  0  0  0  0  0
   19.3005   17.1332   23.9364 H   0  0  0  0  0  0  0  0  0  0  0  0
   18.9924   19.0844   23.0431 C   0  0  0  0  0  0  0  0  0  0  0  0
   19.4182   19.6864   22.2303 H   0  0  0  0  0  0  0  0  0  0  0  0
   17.9443   18.8991   22.7731 H   0  0  0  0  0  0  0  0  0  0  0  0
   19.0334   19.8822   24.3702 C   0  0  0  0  0  0  0  0  0  0  0  0
   18.4927   19.3161   25.1413 H   0  0  0  0  0  0  0  0  0  0  0  0
   18.4733   20.8183   24.2439 H   0  0  0  0  0  0  0  0  0  0  0  0
   20.4596   20.1977   24.8970 C   0  0  0  0  0  0  0  0  0  0  0  0
   20.3698   20.7780   25.8256 H   0  0  0  0  0  0  0  0  0  0  0  0
   20.9587   19.2618   25.1821 H   0  0  0  0  0  0  0  0  0  0  0  0
   21.3709   20.9714   23.9104 C   0  0  0  0  0  0  0  0  0  0  0  0
   21.5633   20.3649   23.0152 H   0  0  0  0  0  0  0  0  0  0  0  0
   22.3501   21.1248   24.3852 H   0  0  0  0  0  0  0  0  0  0  0  0
   20.7984   22.3461   23.4963 C   0  0  0  0  0  0  0  0  0  0  0  0
   19.8707   22.2390   22.9206 H   0  0  0  0  0  0  0  0  0  0  0  0
   21.5165   22.8885   22.8680 H   0  0  0  0  0  0  0  0  0  0  0  0
   20.5869   22.9667   24.3767 H   0  0  0  0  0  0  0  0  0  0  0  0
   20.4357   15.6233   22.0320 C   0  0  0  0  0  0  0  0  0  0  0  0
   19.9829   15.0504   22.8442 H   0  0  0  0  0  0  0  0  0  0  0  0
   20.3839   15.0508   21.1032 H   0  0  0  0  0  0  0  0  0  0  0  0
   21.4781   15.8445   22.2713 H   0  0  0  0  0  0  0  0  0  0  0  0
  1  2  1  0  0  0  0
  1  3  1  0  0  0  0
  1  4  1  0  0  0  0
  4  5  1  0  0  0  0
  4  6  1  0  0  0  0
  4  7  1  0  0  0  0
  7  8  1  0  0  0  0
  7  9  1  0  0  0  0
  7 10  1  0  0  0  0
 10 11  1  0  0  0  0
 10 12  1  0  0  0  0
 10 13  1  0  0  0  0
 13 14  1  0  0  0  0
 13 15  1  0  0  0  0
 13 16  1  0  0  0  0
 16 17  1  0  0  0  0
 16 18  1  0  0  0  0
 16 19  1  0  0  0  0
 19 20  1  0  0  0  0
 19 21  1  0  0  0  0
 19 22  1  0  0  0  0
  1 23  1  0  0  0  0
 23 24  1  0  0  0  0
 23 25  1  0  0  0  0
 23 26  1  0  0  0  0
M  END
> <VConfSearch Rank>
238

> <Conf_Id>
71

> <Delta U+W>
1.096

> <U+W>
22.938

> <U>
72.455

> <W>
-49.517

> <W(PB)>
-51.795

> <W(SA)>
2.278

> <Valence>
2.908

> <Coulomb>
69.435

> <VdW>
0.112

> <VdW6>
-7.766

> <VdW12>
7.877

> <Bond>
0.233

> <Angle>
1.170

> <Pdih>
1.506

> <Idih>
0.000

> <Tether>
0.000

$$$$
VeraChem MOL file


 26 25  0  0  0  0  0  0  0  0999 V2000     
   21.9777   20.1417   22.2108 N   0  3  0  0  0  0  0  0  0  0  0  0
   21.6867   19.1657   22.0516 H   0  0  0  0  0  0  0  0  0  0  0  0
   23.0021   20.1020   22.3327 H   0  0  0  0  0  0  0  0  0  0  0  0
   21.3330   20.6752   23.4803 C   0  0  0  0  0  0  0  0  0  0  0  0
   21.6504   21.7138   23.6024 H   0  0  0  0  0  0  0  0  0  0  0  0
   21.7378   20.1019   24.3178 H   0  0  0  0  0  0  0  0  0  0  0  0
   19.7896   20.5990   23.5146 C   0  0  0  0  0  0  0  0  0  0  0  0
   19.4402   21.0019   24.4744 H   0  0  0  0  0  0  0  0  0  0  0  0
   19.3760   21.2601   22.7422 H   0  0  0  0  0  0  0  0  0  0  0  0
   19.2199   19.1707   23.3230 C   0  0  0  0  0  0  0  0  0  0  0  0
   19.4974   18.7885   22.3317 H   0  0  0  0  0  0  0  0  0  0  0  0
   18.1243   19.2383   23.3282 H   0  0  0  0  0  0  0  0  0  0  0  0
   19.6828   18.1767   24.4186 C   0  0  0  0  0  0  0  0  0  0  0  0
   20.7796   18.1305   24.4351 H   0  0  0  0  0  0  0  0  0  0  0  0
   19.3747   18.5454   25.4067 H   0  0  0  0  0  0  0  0  0  0  0  0
   19.1447   16.7396   24.2137 C   0  0  0  0  0  0  0  0  0  0  0  0
   19.6086   16.0805   24.9608 H   0  0  0  0  0  0  0  0  0  0  0  0
   19.4609   16.3602   23.2319 H   0  0  0  0  0  0  0  0  0  0  0  0
   17.6081   16.6316   24.3428 C   0  0  0  0  0  0  0  0  0  0  0  0
   17.0957   17.1728   23.5379 H   0  0  0  0  0  0  0  0  0  0  0  0
   17.2629   17.0352   25.3035 H   0  0  0  0  0  0  0  0  0  0  0  0
   17.2911   15.5822   24.2870 H   0  0  0  0  0  0  0  0  0  0  0  0
   21.6310   21.0124   21.0088 C   0  0  0  0  0  0  0  0  0  0  0  0
   22.1347   20.6171   20.1239 H   0  0  0  0  0  0  0  0  0  0  0  0
   20.5504   20.9989   20.8532 H   0  0  0  0  0  0  0  0  0  0  0  0
   21.9658   22.0346   21.1979 H   0  0  0  0  0  0  0  0  0  0  0  0
  1  2  1  0  0  0  0
  1  3  1  0  0  0  0
  1  4  1  0  0  0  0
  4  5  1  0  0  0  0
  4  6  1  0  0  0  0
  4  7  1  0  0  0  0
  7  8  1  0  0  0  0
  7  9  1  0  0  0  0
  7 10  1  0  0  0  0
 10 11  1  0  0  0  0
 10 12  1  0  0  0  0
 10 13  1  0  0  0  0
 13 14  1  0  0  0  0
 13 15  1  0  0  0  0
 13 16  1  0  0  0  0
 16 17  1  0  0  0  0
 16 18  1  0  0  0  0
 16 19  1  0  0  0  0
 19 20  1  0  0  0  0
 19 21  1  0  0  0  0
 19 22  1  0  0  0  0
  1 23  1  0  0  0  0
 23 24  1  0  0  0  0
 23 25  1  0  0  0  0
 23 26  1  0  0  0  0
M  END
> <VConfSearch Rank>
239

> <Conf_Id>
84

> <Delta U+W>
1.456

> <U+W>
23.298

> <U>
73.042

> <W>
-49.744

> <W(PB)>
-51.966

> <W(SA)>
2.222

> <Valence>
2.938

> <Coulomb>
69.625

> <VdW>
0.478

> <VdW6>
-8.182

> <VdW12>
8.660

> <Bond>
0.253

> <Angle>
1.038

> <Pdih>
1.647

> <Idih>
0.000

> <Tether>
0.000

$$$$
VeraChem MOL file


 26 25  0  0  0  0  0  0  0  0999 V2000     
   18.1055   19.5947   24.6605 N   0  3  0  0  0  0  0  0  0  0  0  0
   18.9528   20.1791   24.6000 H   0  0  0  0  0  0  0  0  0  0  0  0
   18.0412   19.3011   25.6475 H   0  0  0  0  0  0  0  0  0  0  0  0
   18.2486   18.3807   23.7636 C   0  0  0  0  0  0  0  0  0  0  0  0
   18.3095   18.7308   22.7304 H   0  0  0  0  0  0  0  0  0  0  0  0
   17.3388   17.7839   23.8664 H   0  0  0  0  0  0  0  0  0  0  0  0
   19.4756   17.5045   24.0905 C   0  0  0  0  0  0  0  0  0  0  0  0
   19.3777   17.1156   25.1128 H   0  0  0  0  0  0  0  0  0  0  0  0
   19.4679   16.6284   23.4285 H   0  0  0  0  0  0  0  0  0  0  0  0
   20.8325   18.2393   23.9490 C   0  0  0  0  0  0  0  0  0  0  0  0
   21.6374   17.5394   24.2132 H   0  0  0  0  0  0  0  0  0  0  0  0
   20.8919   19.0592   24.6772 H   0  0  0  0  0  0  0  0  0  0  0  0
   21.0842   18.7863   22.5231 C   0  0  0  0  0  0  0  0  0  0  0  0
   21.0001   17.9670   21.7957 H   0  0  0  0  0  0  0  0  0  0  0  0
   20.3139   19.5240   22.2613 H   0  0  0  0  0  0  0  0  0  0  0  0
   22.4767   19.4437   22.3978 C   0  0  0  0  0  0  0  0  0  0  0  0
   23.2572   18.7112   22.6475 H   0  0  0  0  0  0  0  0  0  0  0  0
   22.5674   20.2631   23.1247 H   0  0  0  0  0  0  0  0  0  0  0  0
   22.7252   19.9911   20.9760 C   0  0  0  0  0  0  0  0  0  0  0  0
   22.6745   19.1880   20.2292 H   0  0  0  0  0  0  0  0  0  0  0  0
   23.7185   20.4531   20.9066 H   0  0  0  0  0  0  0  0  0  0  0  0
   21.9805   20.7526   20.7101 H   0  0  0  0  0  0  0  0  0  0  0  0
   16.8745   20.3948   24.2582 C   0  0  0  0  0  0  0  0  0  0  0  0
   15.9881   19.7647   24.3593 H   0  0  0  0  0  0  0  0  0  0  0  0
   16.7842   21.2658   24.9110 H   0  0  0  0  0  0  0  0  0  0  0  0
   16.9809   20.7203   23.2211 H   0  0  0  0  0  0  0  0  0  0  0  0
  1  2  1  0  0  0  0
  1  3  1  0  0  0  0
  1  4  1  0  0  0  0
  4  5  1  0  0  0  0
  4  6  1  0  0  0  0
  4  7  1  0  0  0  0
  7  8  1  0  0  0  0
  7  9  1  0  0  0  0
  7 10  1  0  0  0  0
 10 11  1  0  0  0  0
 10 12  1  0  0  0  0
 10 13  1  0  0  0  0
 13 14  1  0  0  0  0
 13 15  1  0  0  0  0
 13 16  1  0  0  0  0
 16 17  1  0  0  0  0
 16 18  1  0  0  0  0
 16 19  1  0  0  0  0
 19 20  1  0  0  0  0
 19 21  1  0  0  0  0
 19 22  1  0  0  0  0
  1 23  1  0  0  0  0
 23 24  1  0  0  0  0
 23 25  1  0  0  0  0
 23 26  1  0  0  0  0
M  END
> <VConfSearch Rank>
240

> <Conf_Id>
73

> <Delta U+W>
0.884

> <U+W>
22.726

> <U>
71.905

> <W>
-49.179

> <W(PB)>
-51.494

> <W(SA)>
2.315

> <Valence>
2.125

> <Coulomb>
69.686

> <VdW>
0.093

> <VdW6>
-6.766

> <VdW12>
6.859

> <Bond>
0.169

> <Angle>
0.621

> <Pdih>
1.336

> <Idih>
0.000

> <Tether>
0.000

$$$$
VeraChem MOL file


 26 25  0  0  0  0  0  0  0  0999 V2000     
   21.2573   22.0575   22.9287 N   0  3  0  0  0  0  0  0  0  0  0  0
   20.8231   22.4483   23.7794 H   0  0  0  0  0  0  0  0  0  0  0  0
   20.6341   22.3300   22.1526 H   0  0  0  0  0  0  0  0  0  0  0  0
   21.3379   20.5475   23.0290 C   0  0  0  0  0  0  0  0  0  0  0  0
   21.9980   20.3018   23.8648 H   0  0  0  0  0  0  0  0  0  0  0  0
   21.7941   20.1742   22.1087 H   0  0  0  0  0  0  0  0  0  0  0  0
   19.9677   19.8771   23.2369 C   0  0  0  0  0  0  0  0  0  0  0  0
   19.5058   20.2672   24.1537 H   0  0  0  0  0  0  0  0  0  0  0  0
   19.3026   20.1400   22.4035 H   0  0  0  0  0  0  0  0  0  0  0  0
   20.0988   18.3409   23.3333 C   0  0  0  0  0  0  0  0  0  0  0  0
   20.7693   18.0821   24.1648 H   0  0  0  0  0  0  0  0  0  0  0  0
   20.5665   17.9551   22.4166 H   0  0  0  0  0  0  0  0  0  0  0  0
   18.7286   17.6567   23.5419 C   0  0  0  0  0  0  0  0  0  0  0  0
   18.2608   18.0422   24.4585 H   0  0  0  0  0  0  0  0  0  0  0  0
   18.0581   17.9152   22.7106 H   0  0  0  0  0  0  0  0  0  0  0  0
   18.8600   16.1202   23.6383 C   0  0  0  0  0  0  0  0  0  0  0  0
   19.5280   15.8562   24.4702 H   0  0  0  0  0  0  0  0  0  0  0  0
   19.3252   15.7293   22.7225 H   0  0  0  0  0  0  0  0  0  0  0  0
   17.4899   15.4404   23.8467 C   0  0  0  0  0  0  0  0  0  0  0  0
   17.6038   14.3506   23.9126 H   0  0  0  0  0  0  0  0  0  0  0  0
   16.8101   15.6579   23.0125 H   0  0  0  0  0  0  0  0  0  0  0  0
   17.0145   15.7859   24.7739 H   0  0  0  0  0  0  0  0  0  0  0  0
   22.6497   22.6384   22.7246 C   0  0  0  0  0  0  0  0  0  0  0  0
   23.0750   22.2364   21.8024 H   0  0  0  0  0  0  0  0  0  0  0  0
   22.5773   23.7260   22.6540 H   0  0  0  0  0  0  0  0  0  0  0  0
   23.2808   22.3651   23.5732 H   0  0  0  0  0  0  0  0  0  0  0  0
  1  2  1  0  0  0  0
  1  3  1  0  0  0  0
  1  4  1  0  0  0  0
  4  5  1  0  0  0  0
  4  6  1  0  0  0  0
  4  7  1  0  0  0  0
  7  8  1  0  0  0  0
  7  9  1  0  0  0  0
  7 10  1  0  0  0  0
 10 11  1  0  0  0  0
 10 12  1  0  0  0  0
 10 13  1  0  0  0  0
 13 14  1  0  0  0  0
 13 15  1  0  0  0  0
 13 16  1  0  0  0  0
 16 17  1  0  0  0  0
 16 18  1  0  0  0  0
 16 19  1  0  0  0  0
 19 20  1  0  0  0  0
 19 21  1  0  0  0  0
 19 22  1  0  0  0  0
  1 23  1  0  0  0  0
 23 24  1  0  0  0  0
 23 25  1  0  0  0  0
 23 26  1  0  0  0  0
M  END
> <VConfSearch Rank>
241

> <Conf_Id>
11

> <Delta U+W>
0.000

> <U+W>
21.842

> <U>
70.357

> <W>
-48.515

> <W(PB)>
-50.856

> <W(SA)>
2.341

> <Valence>
1.714

> <Coulomb>
68.480

> <VdW>
0.163

> <VdW6>
-5.268

> <VdW12>
5.431

> <Bond>
0.126

> <Angle>
0.350

> <Pdih>
1.238

> <Idih>
0.000

> <Tether>
0.000

$$$$
VeraChem MOL file


 26 25  0  0  0  0  0  0  0  0999 V2000     
   18.0146   16.3207   23.0372 N   0  3  0  0  0  0  0  0  0  0  0  0
   18.0848   15.3011   23.1837 H   0  0  0  0  0  0  0  0  0  0  0  0
   17.8432   16.4329   22.0260 H   0  0  0  0  0  0  0  0  0  0  0  0
   19.3273   16.9814   23.4240 C   0  0  0  0  0  0  0  0  0  0  0  0
   20.1286   16.4226   22.9338 H   0  0  0  0  0  0  0  0  0  0  0  0
   19.4520   16.8752   24.5046 H   0  0  0  0  0  0  0  0  0  0  0  0
   19.4377   18.4675   23.0267 C   0  0  0  0  0  0  0  0  0  0  0  0
   19.2618   18.5699   21.9477 H   0  0  0  0  0  0  0  0  0  0  0  0
   18.6574   19.0471   23.5368 H   0  0  0  0  0  0  0  0  0  0  0  0
   20.8250   19.0450   23.3847 C   0  0  0  0  0  0  0  0  0  0  0  0
   21.6063   18.4634   22.8756 H   0  0  0  0  0  0  0  0  0  0  0  0
   20.9998   18.9347   24.4641 H   0  0  0  0  0  0  0  0  0  0  0  0
   20.9495   20.5344   22.9903 C   0  0  0  0  0  0  0  0  0  0  0  0
   20.7746   20.6448   21.9111 H   0  0  0  0  0  0  0  0  0  0  0  0
   20.1686   21.1161   23.4995 H   0  0  0  0  0  0  0  0  0  0  0  0
   22.3372   21.1116   23.3484 C   0  0  0  0  0  0  0  0  0  0  0  0
   23.1220   20.5345   22.8393 H   0  0  0  0  0  0  0  0  0  0  0  0
   22.5161   21.0057   24.4277 H   0  0  0  0  0  0  0  0  0  0  0  0
   22.4578   22.5989   22.9532 C   0  0  0  0  0  0  0  0  0  0  0  0
   23.4493   22.9906   23.2153 H   0  0  0  0  0  0  0  0  0  0  0  0
   21.7071   23.2080   23.4734 H   0  0  0  0  0  0  0  0  0  0  0  0
   22.3178   22.7331   21.8727 H   0  0  0  0  0  0  0  0  0  0  0  0
   16.8530   16.8814   23.8499 C   0  0  0  0  0  0  0  0  0  0  0  0
   16.7449   17.9472   23.6391 H   0  0  0  0  0  0  0  0  0  0  0  0
   15.9361   16.3575   23.5707 H   0  0  0  0  0  0  0  0  0  0  0  0
   17.0538   16.7319   24.9130 H   0  0  0  0  0  0  0  0  0  0  0  0
  1  2  1  0  0  0  0
  1  3  1  0  0  0  0
  1  4  1  0  0  0  0
  4  5  1  0  0  0  0
  4  6  1  0  0  0  0
  4  7  1  0  0  0  0
  7  8  1  0  0  0  0
  7  9  1  0  0  0  0
  7 10  1  0  0  0  0
 10 11  1  0  0  0  0
 10 12  1  0  0  0  0
 10 13  1  0  0  0  0
 13 14  1  0  0  0  0
 13 15  1  0  0  0  0
 13 16  1  0  0  0  0
 16 17  1  0  0  0  0
 16 18  1  0  0  0  0
 16 19  1  0  0  0  0
 19 20  1  0  0  0  0
 19 21  1  0  0  0  0
 19 22  1  0  0  0  0
  1 23  1  0  0  0  0
 23 24  1  0  0  0  0
 23 25  1  0  0  0  0
 23 26  1  0  0  0  0
M  END
> <VConfSearch Rank>
242

> <Conf_Id>
102

> <Delta U+W>
0.121

> <U+W>
21.963

> <U>
70.745

> <W>
-48.782

> <W(PB)>
-51.111

> <W(SA)>
2.329

> <Valence>
1.993

> <Coulomb>
68.323

> <VdW>
0.429

> <VdW6>
-5.973

> <VdW12>
6.402

> <Bond>
0.161

> <Angle>
0.472

> <Pdih>
1.360

> <Idih>
0.000

> <Tether>
0.000

$$$$
VeraChem MOL file


 26 25  0  0  0  0  0  0  0  0999 V2000     
   17.6683   21.3842   22.9762 N   0  3  0  0  0  0  0  0  0  0  0  0
   17.6046   21.5578   23.9912 H   0  0  0  0  0  0  0  0  0  0  0  0
   16.6958   21.4434   22.6345 H   0  0  0  0  0  0  0  0  0  0  0  0
   18.2148   19.9906   22.7147 C   0  0  0  0  0  0  0  0  0  0  0  0
   18.3037   19.8612   21.6332 H   0  0  0  0  0  0  0  0  0  0  0  0
   17.4727   19.2769   23.0817 H   0  0  0  0  0  0  0  0  0  0  0  0
   19.5694   19.6968   23.3912 C   0  0  0  0  0  0  0  0  0  0  0  0
   20.3327   20.3866   23.0087 H   0  0  0  0  0  0  0  0  0  0  0  0
   19.4838   19.8773   24.4709 H   0  0  0  0  0  0  0  0  0  0  0  0
   20.0198   18.2403   23.1415 C   0  0  0  0  0  0  0  0  0  0  0  0
   20.0978   18.0619   22.0599 H   0  0  0  0  0  0  0  0  0  0  0  0
   19.2546   17.5498   23.5228 H   0  0  0  0  0  0  0  0  0  0  0  0
   21.3763   17.9321   23.8155 C   0  0  0  0  0  0  0  0  0  0  0  0
   22.1416   18.6222   23.4341 H   0  0  0  0  0  0  0  0  0  0  0  0
   21.2984   18.1108   24.8969 H   0  0  0  0  0  0  0  0  0  0  0  0
   21.8264   16.4754   23.5656 C   0  0  0  0  0  0  0  0  0  0  0  0
   21.9080   16.2922   22.4850 H   0  0  0  0  0  0  0  0  0  0  0  0
   21.0652   15.7808   23.9479 H   0  0  0  0  0  0  0  0  0  0  0  0
   23.1813   16.1713   24.2399 C   0  0  0  0  0  0  0  0  0  0  0  0
   23.9714   16.8278   23.8525 H   0  0  0  0  0  0  0  0  0  0  0  0
   23.4839   15.1331   24.0514 H   0  0  0  0  0  0  0  0  0  0  0  0
   23.1220   16.3126   25.3270 H   0  0  0  0  0  0  0  0  0  0  0  0
   18.5213   22.4491   22.2960 C   0  0  0  0  0  0  0  0  0  0  0  0
   18.5549   22.2503   21.2226 H   0  0  0  0  0  0  0  0  0  0  0  0
   18.0769   23.4307   22.4753 H   0  0  0  0  0  0  0  0  0  0  0  0
   19.5312   22.4227   22.7100 H   0  0  0  0  0  0  0  0  0  0  0  0
  1  2  1  0  0  0  0
  1  3  1  0  0  0  0
  1  4  1  0  0  0  0
  4  5  1  0  0  0  0
  4  6  1  0  0  0  0
  4  7  1  0  0  0  0
  7  8  1  0  0  0  0
  7  9  1  0  0  0  0
  7 10  1  0  0  0  0
 10 11  1  0  0  0  0
 10 12  1  0  0  0  0
 10 13  1  0  0  0  0
 13 14  1  0  0  0  0
 13 15  1  0  0  0  0
 13 16  1  0  0  0  0
 16 17  1  0  0  0  0
 16 18  1  0  0  0  0
 16 19  1  0  0  0  0
 19 20  1  0  0  0  0
 19 21  1  0  0  0  0
 19 22  1  0  0  0  0
  1 23  1  0  0  0  0
 23 24  1  0  0  0  0
 23 25  1  0  0  0  0
 23 26  1  0  0  0  0
M  END
> <VConfSearch Rank>
243

> <Conf_Id>
37

> <Delta U+W>
0.125

> <U+W>
21.967

> <U>
70.745

> <W>
-48.778

> <W(PB)>
-51.115

> <W(SA)>
2.337

> <Valence>
1.993

> <Coulomb>
68.323

> <VdW>
0.429

> <VdW6>
-5.973

> <VdW12>
6.403

> <Bond>
0.161

> <Angle>
0.472

> <Pdih>
1.360

> <Idih>
0.000

> <Tether>
0.000

$$$$
VeraChem MOL file


 26 25  0  0  0  0  0  0  0  0999 V2000     
   21.6563   18.3077   20.8402 N   0  3  0  0  0  0  0  0  0  0  0  0
   22.6670   18.3688   21.0392 H   0  0  0  0  0  0  0  0  0  0  0  0
   21.4370   19.1424   20.2744 H   0  0  0  0  0  0  0  0  0  0  0  0
   20.8664   18.3301   22.1332 C   0  0  0  0  0  0  0  0  0  0  0  0
   21.1346   17.4385   22.7055 H   0  0  0  0  0  0  0  0  0  0  0  0
   19.8064   18.2690   21.8761 H   0  0  0  0  0  0  0  0  0  0  0  0
   21.1262   19.5888   22.9833 C   0  0  0  0  0  0  0  0  0  0  0  0
   22.2015   19.6623   23.1940 H   0  0  0  0  0  0  0  0  0  0  0  0
   20.8566   20.4852   22.4091 H   0  0  0  0  0  0  0  0  0  0  0  0
   20.3531   19.5778   24.3235 C   0  0  0  0  0  0  0  0  0  0  0  0
   20.6768   20.4449   24.9136 H   0  0  0  0  0  0  0  0  0  0  0  0
   20.6334   18.6859   24.9008 H   0  0  0  0  0  0  0  0  0  0  0  0
   18.8145   19.6197   24.1386 C   0  0  0  0  0  0  0  0  0  0  0  0
   18.5329   20.5223   23.5789 H   0  0  0  0  0  0  0  0  0  0  0  0
   18.4943   18.7653   23.5278 H   0  0  0  0  0  0  0  0  0  0  0  0
   18.0321   19.5758   25.4738 C   0  0  0  0  0  0  0  0  0  0  0  0
   18.3013   18.6689   26.0330 H   0  0  0  0  0  0  0  0  0  0  0  0
   16.9594   19.4910   25.2502 H   0  0  0  0  0  0  0  0  0  0  0  0
   18.2567   20.8209   26.3621 C   0  0  0  0  0  0  0  0  0  0  0  0
   19.2924   20.8819   26.7183 H   0  0  0  0  0  0  0  0  0  0  0  0
   17.6068   20.7840   27.2459 H   0  0  0  0  0  0  0  0  0  0  0  0
   18.0257   21.7439   25.8146 H   0  0  0  0  0  0  0  0  0  0  0  0
   21.3409   17.0374   20.0625 C   0  0  0  0  0  0  0  0  0  0  0  0
   20.2730   17.0114   19.8348 H   0  0  0  0  0  0  0  0  0  0  0  0
   21.9162   17.0338   19.1340 H   0  0  0  0  0  0  0  0  0  0  0  0
   21.6117   16.1694   20.6676 H   0  0  0  0  0  0  0  0  0  0  0  0
  1  2  1  0  0  0  0
  1  3  1  0  0  0  0
  1  4  1  0  0  0  0
  4  5  1  0  0  0  0
  4  6  1  0  0  0  0
  4  7  1  0  0  0  0
  7  8  1  0  0  0  0
  7  9  1  0  0  0  0
  7 10  1  0  0  0  0
 10 11  1  0  0  0  0
 10 12  1  0  0  0  0
 10 13  1  0  0  0  0
 13 14  1  0  0  0  0
 13 15  1  0  0  0  0
 13 16  1  0  0  0  0
 16 17  1  0  0  0  0
 16 18  1  0  0  0  0
 16 19  1  0  0  0  0
 19 20  1  0  0  0  0
 19 21  1  0  0  0  0
 19 22  1  0  0  0  0
  1 23  1  0  0  0  0
 23 24  1  0  0  0  0
 23 25  1  0  0  0  0
 23 26  1  0  0  0  0
M  END
> <VConfSearch Rank>
244

> <Conf_Id>
137

> <Delta U+W>
1.038

> <U+W>
22.880

> <U>
71.810

> <W>
-48.930

> <W(PB)>
-51.257

> <W(SA)>
2.327

> <Valence>
2.568

> <Coulomb>
68.877

> <VdW>
0.364

> <VdW6>
-6.470

> <VdW12>
6.834

> <Bond>
0.191

> <Angle>
0.752

> <Pdih>
1.626

> <Idih>
0.000

> <Tether>
0.000

$$$$
VeraChem MOL file


 26 25  0  0  0  0  0  0  0  0999 V2000     
   21.9022   18.1951   25.4770 N   0  3  0  0  0  0  0  0  0  0  0  0
   22.2388   19.1699   25.5118 H   0  0  0  0  0  0  0  0  0  0  0  0
   22.5610   17.6991   24.8567 H   0  0  0  0  0  0  0  0  0  0  0  0
   20.5019   18.1453   24.8996 C   0  0  0  0  0  0  0  0  0  0  0  0
   19.8393   18.6866   25.5797 H   0  0  0  0  0  0  0  0  0  0  0  0
   20.1875   17.0989   24.8729 H   0  0  0  0  0  0  0  0  0  0  0  0
   20.4031   18.7520   23.4882 C   0  0  0  0  0  0  0  0  0  0  0  0
   20.7389   19.7960   23.5243 H   0  0  0  0  0  0  0  0  0  0  0  0
   21.0823   18.2156   22.8124 H   0  0  0  0  0  0  0  0  0  0  0  0
   18.9575   18.6753   22.9427 C   0  0  0  0  0  0  0  0  0  0  0  0
   18.2851   19.2531   23.5920 H   0  0  0  0  0  0  0  0  0  0  0  0
   18.6126   17.6330   22.9924 H   0  0  0  0  0  0  0  0  0  0  0  0
   18.8186   19.1689   21.4812 C   0  0  0  0  0  0  0  0  0  0  0  0
   19.4777   18.5794   20.8290 H   0  0  0  0  0  0  0  0  0  0  0  0
   17.7925   18.9692   21.1427 H   0  0  0  0  0  0  0  0  0  0  0  0
   19.1215   20.6759   21.3042 C   0  0  0  0  0  0  0  0  0  0  0  0
   20.1680   20.8857   21.5622 H   0  0  0  0  0  0  0  0  0  0  0  0
   18.4992   21.2632   21.9938 H   0  0  0  0  0  0  0  0  0  0  0  0
   18.8603   21.1429   19.8562 C   0  0  0  0  0  0  0  0  0  0  0  0
   19.4907   20.5938   19.1447 H   0  0  0  0  0  0  0  0  0  0  0  0
   19.0827   22.2123   19.7476 H   0  0  0  0  0  0  0  0  0  0  0  0
   17.8109   20.9873   19.5738 H   0  0  0  0  0  0  0  0  0  0  0  0
   21.9111   17.5773   26.8685 C   0  0  0  0  0  0  0  0  0  0  0  0
   21.5835   16.5374   26.8019 H   0  0  0  0  0  0  0  0  0  0  0  0
   22.9250   17.6194   27.2727 H   0  0  0  0  0  0  0  0  0  0  0  0
   21.2327   18.1384   27.5149 H   0  0  0  0  0  0  0  0  0  0  0  0
  1  2  1  0  0  0  0
  1  3  1  0  0  0  0
  1  4  1  0  0  0  0
  4  5  1  0  0  0  0
  4  6  1  0  0  0  0
  4  7  1  0  0  0  0
  7  8  1  0  0  0  0
  7  9  1  0  0  0  0
  7 10  1  0  0  0  0
 10 11  1  0  0  0  0
 10 12  1  0  0  0  0
 10 13  1  0  0  0  0
 13 14  1  0  0  0  0
 13 15  1  0  0  0  0
 13 16  1  0  0  0  0
 16 17  1  0  0  0  0
 16 18  1  0  0  0  0
 16 19  1  0  0  0  0
 19 20  1  0  0  0  0
 19 21  1  0  0  0  0
 19 22  1  0  0  0  0
  1 23  1  0  0  0  0
 23 24  1  0  0  0  0
 23 25  1  0  0  0  0
 23 26  1  0  0  0  0
M  END
> <VConfSearch Rank>
245

> <Conf_Id>
35

> <Delta U+W>
0.670

> <U+W>
22.512

> <U>
71.348

> <W>
-48.837

> <W(PB)>
-51.150

> <W(SA)>
2.313

> <Valence>
2.262

> <Coulomb>
68.807

> <VdW>
0.280

> <VdW6>
-5.915

> <VdW12>
6.195

> <Bond>
0.164

> <Angle>
0.622

> <Pdih>
1.475

> <Idih>
0.000

> <Tether>
0.000

$$$$
VeraChem MOL file


 26 25  0  0  0  0  0  0  0  0999 V2000     
   18.2167   18.8210   25.6410 N   0  3  0  0  0  0  0  0  0  0  0  0
   17.7359   19.7198   25.4798 H   0  0  0  0  0  0  0  0  0  0  0  0
   19.0353   19.0487   26.2265 H   0  0  0  0  0  0  0  0  0  0  0  0
   18.6663   18.2246   24.3222 C   0  0  0  0  0  0  0  0  0  0  0  0
   17.7731   18.0064   23.7314 H   0  0  0  0  0  0  0  0  0  0  0  0
   19.1759   17.2820   24.5369 H   0  0  0  0  0  0  0  0  0  0  0  0
   19.6026   19.1493   23.5233 C   0  0  0  0  0  0  0  0  0  0  0  0
   19.0922   20.1010   23.3241 H   0  0  0  0  0  0  0  0  0  0  0  0
   20.4858   19.3763   24.1335 H   0  0  0  0  0  0  0  0  0  0  0  0
   20.0306   18.4980   22.1869 C   0  0  0  0  0  0  0  0  0  0  0  0
   19.1305   18.2045   21.6290 H   0  0  0  0  0  0  0  0  0  0  0  0
   20.5845   17.5703   22.3874 H   0  0  0  0  0  0  0  0  0  0  0  0
   20.8833   19.4278   21.2885 C   0  0  0  0  0  0  0  0  0  0  0  0
   21.0395   18.9297   20.3216 H   0  0  0  0  0  0  0  0  0  0  0  0
   20.3226   20.3479   21.0732 H   0  0  0  0  0  0  0  0  0  0  0  0
   22.2601   19.7861   21.8970 C   0  0  0  0  0  0  0  0  0  0  0  0
   22.8004   18.8661   22.1605 H   0  0  0  0  0  0  0  0  0  0  0  0
   22.1279   20.3553   22.8266 H   0  0  0  0  0  0  0  0  0  0  0  0
   23.1157   20.6188   20.9184 C   0  0  0  0  0  0  0  0  0  0  0  0
   23.3054   20.0653   19.9895 H   0  0  0  0  0  0  0  0  0  0  0  0
   24.0867   20.8665   21.3665 H   0  0  0  0  0  0  0  0  0  0  0  0
   22.6146   21.5605   20.6589 H   0  0  0  0  0  0  0  0  0  0  0  0
   17.2978   17.8460   26.3640 C   0  0  0  0  0  0  0  0  0  0  0  0
   17.8382   16.9159   26.5528 H   0  0  0  0  0  0  0  0  0  0  0  0
   16.9813   18.2877   27.3117 H   0  0  0  0  0  0  0  0  0  0  0  0
   16.4238   17.6463   25.7401 H   0  0  0  0  0  0  0  0  0  0  0  0
  1  2  1  0  0  0  0
  1  3  1  0  0  0  0
  1  4  1  0  0  0  0
  4  5  1  0  0  0  0
  4  6  1  0  0  0  0
  4  7  1  0  0  0  0
  7  8  1  0  0  0  0
  7  9  1  0  0  0  0
  7 10  1  0  0  0  0
 10 11  1  0  0  0  0
 10 12  1  0  0  0  0
 10 13  1  0  0  0  0
 13 14  1  0  0  0  0
 13 15  1  0  0  0  0
 13 16  1  0  0  0  0
 16 17  1  0  0  0  0
 16 18  1  0  0  0  0
 16 19  1  0  0  0  0
 19 20  1  0  0  0  0
 19 21  1  0  0  0  0
 19 22  1  0  0  0  0
  1 23  1  0  0  0  0
 23 24  1  0  0  0  0
 23 25  1  0  0  0  0
 23 26  1  0  0  0  0
M  END
> <VConfSearch Rank>
246

> <Conf_Id>
36

> <Delta U+W>
0.662

> <U+W>
22.504

> <U>
71.348

> <W>
-48.844

> <W(PB)>
-51.157

> <W(SA)>
2.313

> <Valence>
2.262

> <Coulomb>
68.807

> <VdW>
0.280

> <VdW6>
-5.916

> <VdW12>
6.195

> <Bond>
0.164

> <Angle>
0.622

> <Pdih>
1.475

> <Idih>
0.000

> <Tether>
0.000

$$$$
VeraChem MOL file


 26 25  0  0  0  0  0  0  0  0999 V2000     
   18.6880   16.5313   23.9415 N   0  3  0  0  0  0  0  0  0  0  0  0
   17.8061   16.7647   23.4592 H   0  0  0  0  0  0  0  0  0  0  0  0
   18.4290   16.3798   24.9288 H   0  0  0  0  0  0  0  0  0  0  0  0
   19.6666   17.6828   23.8284 C   0  0  0  0  0  0  0  0  0  0  0  0
   19.9085   17.8111   22.7708 H   0  0  0  0  0  0  0  0  0  0  0  0
   20.5793   17.4007   24.3594 H   0  0  0  0  0  0  0  0  0  0  0  0
   19.1206   19.0044   24.4027 C   0  0  0  0  0  0  0  0  0  0  0  0
   18.2026   19.2870   23.8704 H   0  0  0  0  0  0  0  0  0  0  0  0
   18.8403   18.8505   25.4532 H   0  0  0  0  0  0  0  0  0  0  0  0
   20.1457   20.1602   24.3209 C   0  0  0  0  0  0  0  0  0  0  0  0
   21.0525   19.8856   24.8776 H   0  0  0  0  0  0  0  0  0  0  0  0
   19.7254   21.0401   24.8274 H   0  0  0  0  0  0  0  0  0  0  0  0
   20.5197   20.5398   22.8677 C   0  0  0  0  0  0  0  0  0  0  0  0
   20.9869   19.6830   22.3639 H   0  0  0  0  0  0  0  0  0  0  0  0
   19.6075   20.7814   22.3048 H   0  0  0  0  0  0  0  0  0  0  0  0
   21.4868   21.7438   22.8197 C   0  0  0  0  0  0  0  0  0  0  0  0
   22.4012   21.5079   23.3821 H   0  0  0  0  0  0  0  0  0  0  0  0
   21.0259   22.6106   23.3138 H   0  0  0  0  0  0  0  0  0  0  0  0
   21.8604   22.1204   21.3700 C   0  0  0  0  0  0  0  0  0  0  0  0
   22.3559   21.2842   20.8597 H   0  0  0  0  0  0  0  0  0  0  0  0
   22.5468   22.9770   21.3567 H   0  0  0  0  0  0  0  0  0  0  0  0
   20.9689   22.3944   20.7909 H   0  0  0  0  0  0  0  0  0  0  0  0
   19.3023   15.2697   23.3508 C   0  0  0  0  0  0  0  0  0  0  0  0
   20.2152   15.0246   23.8981 H   0  0  0  0  0  0  0  0  0  0  0  0
   18.5876   14.4484   23.4388 H   0  0  0  0  0  0  0  0  0  0  0  0
   19.5369   15.4433   22.2983 H   0  0  0  0  0  0  0  0  0  0  0  0
  1  2  1  0  0  0  0
  1  3  1  0  0  0  0
  1  4  1  0  0  0  0
  4  5  1  0  0  0  0
  4  6  1  0  0  0  0
  4  7  1  0  0  0  0
  7  8  1  0  0  0  0
  7  9  1  0  0  0  0
  7 10  1  0  0  0  0
 10 11  1  0  0  0  0
 10 12  1  0  0  0  0
 10 13  1  0  0  0  0
 13 14  1  0  0  0  0
 13 15  1  0  0  0  0
 13 16  1  0  0  0  0
 16 17  1  0  0  0  0
 16 18  1  0  0  0  0
 16 19  1  0  0  0  0
 19 20  1  0  0  0  0
 19 21  1  0  0  0  0
 19 22  1  0  0  0  0
  1 23  1  0  0  0  0
 23 24  1  0  0  0  0
 23 25  1  0  0  0  0
 23 26  1  0  0  0  0
M  END
> <VConfSearch Rank>
247

> <Conf_Id>
46

> <Delta U+W>
0.496

> <U+W>
22.338

> <U>
71.138

> <W>
-48.799

> <W(PB)>
-51.136

> <W(SA)>
2.337

> <Valence>
2.016

> <Coulomb>
68.932

> <VdW>
0.190

> <VdW6>
-5.902

> <VdW12>
6.092

> <Bond>
0.149

> <Angle>
0.477

> <Pdih>
1.390

> <Idih>
0.000

> <Tether>
0.000

$$$$
VeraChem MOL file


 26 25  0  0  0  0  0  0  0  0999 V2000     
   20.2629   17.5367   20.7018 N   0  3  0  0  0  0  0  0  0  0  0  0
   19.4279   17.4656   20.0995 H   0  0  0  0  0  0  0  0  0  0  0  0
   20.3707   16.6052   21.1324 H   0  0  0  0  0  0  0  0  0  0  0  0
   20.0470   18.5864   21.7732 C   0  0  0  0  0  0  0  0  0  0  0  0
   19.9270   19.5526   21.2767 H   0  0  0  0  0  0  0  0  0  0  0  0
   20.9492   18.6244   22.3881 H   0  0  0  0  0  0  0  0  0  0  0  0
   18.8207   18.3052   22.6628 C   0  0  0  0  0  0  0  0  0  0  0  0
   17.9278   18.2257   22.0285 H   0  0  0  0  0  0  0  0  0  0  0  0
   18.9405   17.3335   23.1603 H   0  0  0  0  0  0  0  0  0  0  0  0
   18.5866   19.4068   23.7233 C   0  0  0  0  0  0  0  0  0  0  0  0
   17.6508   19.1890   24.2566 H   0  0  0  0  0  0  0  0  0  0  0  0
   18.4397   20.3733   23.2213 H   0  0  0  0  0  0  0  0  0  0  0  0
   19.7415   19.5204   24.7476 C   0  0  0  0  0  0  0  0  0  0  0  0
   19.9076   18.5441   25.2236 H   0  0  0  0  0  0  0  0  0  0  0  0
   20.6747   19.7867   24.2336 H   0  0  0  0  0  0  0  0  0  0  0  0
   19.4431   20.5775   25.8343 C   0  0  0  0  0  0  0  0  0  0  0  0
   18.5149   20.3164   26.3617 H   0  0  0  0  0  0  0  0  0  0  0  0
   19.2752   21.5564   25.3635 H   0  0  0  0  0  0  0  0  0  0  0  0
   20.5962   20.6911   26.8543 C   0  0  0  0  0  0  0  0  0  0  0  0
   20.7659   19.7351   27.3666 H   0  0  0  0  0  0  0  0  0  0  0  0
   20.3657   21.4457   27.6175 H   0  0  0  0  0  0  0  0  0  0  0  0
   21.5319   20.9857   26.3615 H   0  0  0  0  0  0  0  0  0  0  0  0
   21.4909   17.8874   19.8730 C   0  0  0  0  0  0  0  0  0  0  0  0
   21.6349   17.1238   19.1053 H   0  0  0  0  0  0  0  0  0  0  0  0
   21.3398   18.8608   19.4013 H   0  0  0  0  0  0  0  0  0  0  0  0
   22.3660   17.9240   20.5255 H   0  0  0  0  0  0  0  0  0  0  0  0
  1  2  1  0  0  0  0
  1  3  1  0  0  0  0
  1  4  1  0  0  0  0
  4  5  1  0  0  0  0
  4  6  1  0  0  0  0
  4  7  1  0  0  0  0
  7  8  1  0  0  0  0
  7  9  1  0  0  0  0
  7 10  1  0  0  0  0
 10 11  1  0  0  0  0
 10 12  1  0  0  0  0
 10 13  1  0  0  0  0
 13 14  1  0  0  0  0
 13 15  1  0  0  0  0
 13 16  1  0  0  0  0
 16 17  1  0  0  0  0
 16 18  1  0  0  0  0
 16 19  1  0  0  0  0
 19 20  1  0  0  0  0
 19 21  1  0  0  0  0
 19 22  1  0  0  0  0
  1 23  1  0  0  0  0
 23 24  1  0  0  0  0
 23 25  1  0  0  0  0
 23 26  1  0  0  0  0
M  END
> <VConfSearch Rank>
248

> <Conf_Id>
45

> <Delta U+W>
0.471

> <U+W>
22.313

> <U>
71.138

> <W>
-48.825

> <W(PB)>
-51.169

> <W(SA)>
2.344

> <Valence>
2.016

> <Coulomb>
68.932

> <VdW>
0.190

> <VdW6>
-5.902

> <VdW12>
6.092

> <Bond>
0.149

> <Angle>
0.477

> <Pdih>
1.390

> <Idih>
0.000

> <Tether>
0.000

$$$$
VeraChem MOL file


 26 25  0  0  0  0  0  0  0  0999 V2000     
   22.4106   18.2163   22.5472 N   0  3  0  0  0  0  0  0  0  0  0  0
   22.4320   18.3645   23.5674 H   0  0  0  0  0  0  0  0  0  0  0  0
   22.5531   19.1488   22.1291 H   0  0  0  0  0  0  0  0  0  0  0  0
   21.0637   17.6579   22.1305 C   0  0  0  0  0  0  0  0  0  0  0  0
   20.9456   16.6774   22.5987 H   0  0  0  0  0  0  0  0  0  0  0  0
   21.0855   17.5180   21.0467 H   0  0  0  0  0  0  0  0  0  0  0  0
   19.8709   18.5590   22.5058 C   0  0  0  0  0  0  0  0  0  0  0  0
   19.9982   19.5393   22.0296 H   0  0  0  0  0  0  0  0  0  0  0  0
   18.9577   18.1196   22.0830 H   0  0  0  0  0  0  0  0  0  0  0  0
   19.7032   18.7166   24.0380 C   0  0  0  0  0  0  0  0  0  0  0  0
   20.5725   19.2372   24.4616 H   0  0  0  0  0  0  0  0  0  0  0  0
   19.6845   17.7193   24.4992 H   0  0  0  0  0  0  0  0  0  0  0  0
   18.4113   19.4684   24.4430 C   0  0  0  0  0  0  0  0  0  0  0  0
   17.5357   18.9390   24.0424 H   0  0  0  0  0  0  0  0  0  0  0  0
   18.3170   19.4344   25.5372 H   0  0  0  0  0  0  0  0  0  0  0  0
   18.3842   20.9450   23.9816 C   0  0  0  0  0  0  0  0  0  0  0  0
   18.4008   21.0004   22.8851 H   0  0  0  0  0  0  0  0  0  0  0  0
   19.2847   21.4628   24.3406 H   0  0  0  0  0  0  0  0  0  0  0  0
   17.1305   21.6809   24.5009 C   0  0  0  0  0  0  0  0  0  0  0  0
   16.2125   21.2037   24.1337 H   0  0  0  0  0  0  0  0  0  0  0  0
   17.1258   22.7251   24.1624 H   0  0  0  0  0  0  0  0  0  0  0  0
   17.0992   21.6829   25.5982 H   0  0  0  0  0  0  0  0  0  0  0  0
   23.5203   17.2646   22.1229 C   0  0  0  0  0  0  0  0  0  0  0  0
   23.4976   17.1479   21.0371 H   0  0  0  0  0  0  0  0  0  0  0  0
   24.4838   17.6781   22.4293 H   0  0  0  0  0  0  0  0  0  0  0  0
   23.3654   16.2956   22.6025 H   0  0  0  0  0  0  0  0  0  0  0  0
  1  2  1  0  0  0  0
  1  3  1  0  0  0  0
  1  4  1  0  0  0  0
  4  5  1  0  0  0  0
  4  6  1  0  0  0  0
  4  7  1  0  0  0  0
  7  8  1  0  0  0  0
  7  9  1  0  0  0  0
  7 10  1  0  0  0  0
 10 11  1  0  0  0  0
 10 12  1  0  0  0  0
 10 13  1  0  0  0  0
 13 14  1  0  0  0  0
 13 15  1  0  0  0  0
 13 16  1  0  0  0  0
 16 17  1  0  0  0  0
 16 18  1  0  0  0  0
 16 19  1  0  0  0  0
 19 20  1  0  0  0  0
 19 21  1  0  0  0  0
 19 22  1  0  0  0  0
  1 23  1  0  0  0  0
 23 24  1  0  0  0  0
 23 25  1  0  0  0  0
 23 26  1  0  0  0  0
M  END
> <VConfSearch Rank>
249

> <Conf_Id>
143

> <Delta U+W>
0.915

> <U+W>
22.757

> <U>
71.994

> <W>
-49.237

> <W(PB)>
-51.537

> <W(SA)>
2.300

> <Valence>
2.376

> <Coulomb>
69.315

> <VdW>
0.303

> <VdW6>
-6.508

> <VdW12>
6.810

> <Bond>
0.182

> <Angle>
0.660

> <Pdih>
1.534

> <Idih>
0.000

> <Tether>
0.000

$$$$
VeraChem MOL file


 26 25  0  0  0  0  0  0  0  0999 V2000     
   19.4931   18.5889   20.7991 N   0  3  0  0  0  0  0  0  0  0  0  0
   19.7563   17.6400   21.1047 H   0  0  0  0  0  0  0  0  0  0  0  0
   20.3705   19.0310   20.4838 H   0  0  0  0  0  0  0  0  0  0  0  0
   18.9049   19.3669   21.9605 C   0  0  0  0  0  0  0  0  0  0  0  0
   17.9856   18.8652   22.2728 H   0  0  0  0  0  0  0  0  0  0  0  0
   18.6418   20.3608   21.5895 H   0  0  0  0  0  0  0  0  0  0  0  0
   19.8544   19.5084   23.1667 C   0  0  0  0  0  0  0  0  0  0  0  0
   20.7894   19.9855   22.8444 H   0  0  0  0  0  0  0  0  0  0  0  0
   19.3809   20.1863   23.8873 H   0  0  0  0  0  0  0  0  0  0  0  0
   20.1544   18.1542   23.8546 C   0  0  0  0  0  0  0  0  0  0  0  0
   20.5303   17.4405   23.1099 H   0  0  0  0  0  0  0  0  0  0  0  0
   19.2184   17.7274   24.2410 H   0  0  0  0  0  0  0  0  0  0  0  0
   21.1943   18.2364   25.0022 C   0  0  0  0  0  0  0  0  0  0  0  0
   21.3530   17.2158   25.3773 H   0  0  0  0  0  0  0  0  0  0  0  0
   22.1675   18.5598   24.6077 H   0  0  0  0  0  0  0  0  0  0  0  0
   20.7771   19.1298   26.1992 C   0  0  0  0  0  0  0  0  0  0  0  0
   21.1520   18.6715   27.1252 H   0  0  0  0  0  0  0  0  0  0  0  0
   19.6828   19.1528   26.2962 H   0  0  0  0  0  0  0  0  0  0  0  0
   21.3410   20.5679   26.1182 C   0  0  0  0  0  0  0  0  0  0  0  0
   20.9922   21.0992   25.2260 H   0  0  0  0  0  0  0  0  0  0  0  0
   22.4385   20.5575   26.0969 H   0  0  0  0  0  0  0  0  0  0  0  0
   21.0314   21.1515   26.9948 H   0  0  0  0  0  0  0  0  0  0  0  0
   18.4878   18.5220   19.6579 C   0  0  0  0  0  0  0  0  0  0  0  0
   18.2487   19.5361   19.3301 H   0  0  0  0  0  0  0  0  0  0  0  0
   18.9234   17.9595   18.8291 H   0  0  0  0  0  0  0  0  0  0  0  0
   17.5813   18.0224   20.0067 H   0  0  0  0  0  0  0  0  0  0  0  0
  1  2  1  0  0  0  0
  1  3  1  0  0  0  0
  1  4  1  0  0  0  0
  4  5  1  0  0  0  0
  4  6  1  0  0  0  0
  4  7  1  0  0  0  0
  7  8  1  0  0  0  0
  7  9  1  0  0  0  0
  7 10  1  0  0  0  0
 10 11  1  0  0  0  0
 10 12  1  0  0  0  0
 10 13  1  0  0  0  0
 13 14  1  0  0  0  0
 13 15  1  0  0  0  0
 13 16  1  0  0  0  0
 16 17  1  0  0  0  0
 16 18  1  0  0  0  0
 16 19  1  0  0  0  0
 19 20  1  0  0  0  0
 19 21  1  0  0  0  0
 19 22  1  0  0  0  0
  1 23  1  0  0  0  0
 23 24  1  0  0  0  0
 23 25  1  0  0  0  0
 23 26  1  0  0  0  0
M  END
> <VConfSearch Rank>
250

> <Conf_Id>
76

> <Delta U+W>
3.468

> <U+W>
25.310

> <U>
74.594

> <W>
-49.283

> <W(PB)>
-51.537

> <W(SA)>
2.253

> <Valence>
4.886

> <Coulomb>
69.332

> <VdW>
0.376

> <VdW6>
-7.329

> <VdW12>
7.705

> <Bond>
0.232

> <Angle>
1.251

> <Pdih>
3.403

> <Idih>
0.000

> <Tether>
0.000

$$$$
VeraChem MOL file


 26 25  0  0  0  0  0  0  0  0999 V2000     
   22.0901   17.1264   23.4836 N   0  3  0  0  0  0  0  0  0  0  0  0
   21.3233   16.4685   23.2736 H   0  0  0  0  0  0  0  0  0  0  0  0
   22.2419   17.0554   24.5018 H   0  0  0  0  0  0  0  0  0  0  0  0
   21.6842   18.5387   23.1127 C   0  0  0  0  0  0  0  0  0  0  0  0
   21.5265   18.5692   22.0316 H   0  0  0  0  0  0  0  0  0  0  0  0
   22.5172   19.2022   23.3580 H   0  0  0  0  0  0  0  0  0  0  0  0
   20.4115   19.0163   23.8350 C   0  0  0  0  0  0  0  0  0  0  0  0
   19.5880   18.3314   23.6042 H   0  0  0  0  0  0  0  0  0  0  0  0
   20.5707   18.9672   24.9204 H   0  0  0  0  0  0  0  0  0  0  0  0
   20.0454   20.4650   23.4317 C   0  0  0  0  0  0  0  0  0  0  0  0
   19.9399   20.5441   22.3407 H   0  0  0  0  0  0  0  0  0  0  0  0
   20.8873   21.1174   23.7027 H   0  0  0  0  0  0  0  0  0  0  0  0
   18.7670   20.9981   24.1303 C   0  0  0  0  0  0  0  0  0  0  0  0
   18.6483   20.5309   25.1176 H   0  0  0  0  0  0  0  0  0  0  0  0
   18.9064   22.0704   24.3261 H   0  0  0  0  0  0  0  0  0  0  0  0
   17.4631   20.8415   23.3063 C   0  0  0  0  0  0  0  0  0  0  0  0
   17.5527   21.4010   22.3647 H   0  0  0  0  0  0  0  0  0  0  0  0
   16.6412   21.3135   23.8626 H   0  0  0  0  0  0  0  0  0  0  0  0
   17.0753   19.3787   22.9977 C   0  0  0  0  0  0  0  0  0  0  0  0
   17.0426   18.7751   23.9139 H   0  0  0  0  0  0  0  0  0  0  0  0
   17.7837   18.9174   22.2988 H   0  0  0  0  0  0  0  0  0  0  0  0
   16.0822   19.3357   22.5321 H   0  0  0  0  0  0  0  0  0  0  0  0
   23.3518   16.7345   22.7272 C   0  0  0  0  0  0  0  0  0  0  0  0
   23.1573   16.7852   21.6536 H   0  0  0  0  0  0  0  0  0  0  0  0
   24.1571   17.4239   22.9904 H   0  0  0  0  0  0  0  0  0  0  0  0
   23.6333   15.7159   23.0034 H   0  0  0  0  0  0  0  0  0  0  0  0
  1  2  1  0  0  0  0
  1  3  1  0  0  0  0
  1  4  1  0  0  0  0
  4  5  1  0  0  0  0
  4  6  1  0  0  0  0
  4  7  1  0  0  0  0
  7  8  1  0  0  0  0
  7  9  1  0  0  0  0
  7 10  1  0  0  0  0
 10 11  1  0  0  0  0
 10 12  1  0  0  0  0
 10 13  1  0  0  0  0
 13 14  1  0  0  0  0
 13 15  1  0  0  0  0
 13 16  1  0  0  0  0
 16 17  1  0  0  0  0
 16 18  1  0  0  0  0
 16 19  1  0  0  0  0
 19 20  1  0  0  0  0
 19 21  1  0  0  0  0
 19 22  1  0  0  0  0
  1 23  1  0  0  0  0
 23 24  1  0  0  0  0
 23 25  1  0  0  0  0
 23 26  1  0  0  0  0
M  END
> <VConfSearch Rank>
251

> <Conf_Id>
123

> <Delta U+W>
3.101

> <U+W>
24.943

> <U>
74.070

> <W>
-49.127

> <W(PB)>
-51.421

> <W(SA)>
2.295

> <Valence>
4.690

> <Coulomb>
69.115

> <VdW>
0.266

> <VdW6>
-6.809

> <VdW12>
7.075

> <Bond>
0.212

> <Angle>
1.133

> <Pdih>
3.345

> <Idih>
0.000

> <Tether>
0.000

$$$$
VeraChem MOL file


 26 25  0  0  0  0  0  0  0  0999 V2000     
   17.9811   17.7896   24.1669 N   0  3  0  0  0  0  0  0  0  0  0  0
   18.3574   16.8526   24.3792 H   0  0  0  0  0  0  0  0  0  0  0  0
   17.8670   17.8161   23.1425 H   0  0  0  0  0  0  0  0  0  0  0  0
   18.9620   18.8583   24.6094 C   0  0  0  0  0  0  0  0  0  0  0  0
   19.0507   18.7937   25.6969 H   0  0  0  0  0  0  0  0  0  0  0  0
   18.5347   19.8326   24.3594 H   0  0  0  0  0  0  0  0  0  0  0  0
   20.3604   18.7273   23.9745 C   0  0  0  0  0  0  0  0  0  0  0  0
   21.0180   19.4704   24.4391 H   0  0  0  0  0  0  0  0  0  0  0  0
   20.7832   17.7449   24.2234 H   0  0  0  0  0  0  0  0  0  0  0  0
   20.3381   18.9172   22.4361 C   0  0  0  0  0  0  0  0  0  0  0  0
   19.8290   19.8549   22.1737 H   0  0  0  0  0  0  0  0  0  0  0  0
   19.7385   18.1109   21.9931 H   0  0  0  0  0  0  0  0  0  0  0  0
   21.7485   18.8801   21.7912 C   0  0  0  0  0  0  0  0  0  0  0  0
   22.4218   18.2436   22.3818 H   0  0  0  0  0  0  0  0  0  0  0  0
   21.6639   18.3906   20.8110 H   0  0  0  0  0  0  0  0  0  0  0  0
   22.3936   20.2711   21.5625 C   0  0  0  0  0  0  0  0  0  0  0  0
   21.7614   20.8636   20.8864 H   0  0  0  0  0  0  0  0  0  0  0  0
   23.3493   20.1301   21.0385 H   0  0  0  0  0  0  0  0  0  0  0  0
   22.6525   21.0741   22.8562 C   0  0  0  0  0  0  0  0  0  0  0  0
   23.2343   20.4864   23.5779 H   0  0  0  0  0  0  0  0  0  0  0  0
   21.7121   21.3805   23.3306 H   0  0  0  0  0  0  0  0  0  0  0  0
   23.2191   21.9875   22.6334 H   0  0  0  0  0  0  0  0  0  0  0  0
   16.6411   17.9974   24.8586 C   0  0  0  0  0  0  0  0  0  0  0  0
   16.2488   18.9817   24.5935 H   0  0  0  0  0  0  0  0  0  0  0  0
   15.9447   17.2222   24.5310 H   0  0  0  0  0  0  0  0  0  0  0  0
   16.7815   17.9339   25.9399 H   0  0  0  0  0  0  0  0  0  0  0  0
  1  2  1  0  0  0  0
  1  3  1  0  0  0  0
  1  4  1  0  0  0  0
  4  5  1  0  0  0  0
  4  6  1  0  0  0  0
  4  7  1  0  0  0  0
  7  8  1  0  0  0  0
  7  9  1  0  0  0  0
  7 10  1  0  0  0  0
 10 11  1  0  0  0  0
 10 12  1  0  0  0  0
 10 13  1  0  0  0  0
 13 14  1  0  0  0  0
 13 15  1  0  0  0  0
 13 16  1  0  0  0  0
 16 17  1  0  0  0  0
 16 18  1  0  0  0  0
 16 19  1  0  0  0  0
 19 20  1  0  0  0  0
 19 21  1  0  0  0  0
 19 22  1  0  0  0  0
  1 23  1  0  0  0  0
 23 24  1  0  0  0  0
 23 25  1  0  0  0  0
 23 26  1  0  0  0  0
M  END
> <VConfSearch Rank>
252

> <Conf_Id>
111

> <Delta U+W>
3.383

> <U+W>
25.225

> <U>
74.516

> <W>
-49.292

> <W(PB)>
-51.558

> <W(SA)>
2.266

> <Valence>
4.842

> <Coulomb>
69.333

> <VdW>
0.342

> <VdW6>
-7.369

> <VdW12>
7.711

> <Bond>
0.232

> <Angle>
1.153

> <Pdih>
3.457

> <Idih>
0.000

> <Tether>
0.000

$$$$
VeraChem MOL file


 26 25  0  0  0  0  0  0  0  0999 V2000     
   18.1267   19.3003   24.7238 N   0  3  0  0  0  0  0  0  0  0  0  0
   17.2581   19.6199   24.2678 H   0  0  0  0  0  0  0  0  0  0  0  0
   18.8112   20.0574   24.5775 H   0  0  0  0  0  0  0  0  0  0  0  0
   18.6194   18.0239   24.0706 C   0  0  0  0  0  0  0  0  0  0  0  0
   17.8630   17.2530   24.2383 H   0  0  0  0  0  0  0  0  0  0  0  0
   19.5351   17.7163   24.5809 H   0  0  0  0  0  0  0  0  0  0  0  0
   18.8851   18.1595   22.5569 C   0  0  0  0  0  0  0  0  0  0  0  0
   19.1907   17.1804   22.1646 H   0  0  0  0  0  0  0  0  0  0  0  0
   17.9446   18.4116   22.0493 H   0  0  0  0  0  0  0  0  0  0  0  0
   19.9614   19.2136   22.1928 C   0  0  0  0  0  0  0  0  0  0  0  0
   19.6273   20.2126   22.5028 H   0  0  0  0  0  0  0  0  0  0  0  0
   20.0476   19.2470   21.0990 H   0  0  0  0  0  0  0  0  0  0  0  0
   21.3490   18.9089   22.8130 C   0  0  0  0  0  0  0  0  0  0  0  0
   21.2598   18.8519   23.9058 H   0  0  0  0  0  0  0  0  0  0  0  0
   21.6946   17.9207   22.4794 H   0  0  0  0  0  0  0  0  0  0  0  0
   22.4222   19.9720   22.4743 C   0  0  0  0  0  0  0  0  0  0  0  0
   23.3348   19.7439   23.0428 H   0  0  0  0  0  0  0  0  0  0  0  0
   22.0874   20.9612   22.8164 H   0  0  0  0  0  0  0  0  0  0  0  0
   22.7770   20.0340   20.9710 C   0  0  0  0  0  0  0  0  0  0  0  0
   21.9286   20.3824   20.3693 H   0  0  0  0  0  0  0  0  0  0  0  0
   23.0836   19.0488   20.5963 H   0  0  0  0  0  0  0  0  0  0  0  0
   23.6083   20.7305   20.8013 H   0  0  0  0  0  0  0  0  0  0  0  0
   17.8970   19.0673   26.2105 C   0  0  0  0  0  0  0  0  0  0  0  0
   17.5438   19.9941   26.6681 H   0  0  0  0  0  0  0  0  0  0  0  0
   17.1475   18.2834   26.3393 H   0  0  0  0  0  0  0  0  0  0  0  0
   18.8367   18.7609   26.6754 H   0  0  0  0  0  0  0  0  0  0  0  0
  1  2  1  0  0  0  0
  1  3  1  0  0  0  0
  1  4  1  0  0  0  0
  4  5  1  0  0  0  0
  4  6  1  0  0  0  0
  4  7  1  0  0  0  0
  7  8  1  0  0  0  0
  7  9  1  0  0  0  0
  7 10  1  0  0  0  0
 10 11  1  0  0  0  0
 10 12  1  0  0  0  0
 10 13  1  0  0  0  0
 13 14  1  0  0  0  0
 13 15  1  0  0  0  0
 13 16  1  0  0  0  0
 16 17  1  0  0  0  0
 16 18  1  0  0  0  0
 16 19  1  0  0  0  0
 19 20  1  0  0  0  0
 19 21  1  0  0  0  0
 19 22  1  0  0  0  0
  1 23  1  0  0  0  0
 23 24  1  0  0  0  0
 23 25  1  0  0  0  0
 23 26  1  0  0  0  0
M  END
> <VConfSearch Rank>
253

> <Conf_Id>
126

> <Delta U+W>
1.519

> <U+W>
23.361

> <U>
72.579

> <W>
-49.218

> <W(PB)>
-51.496

> <W(SA)>
2.279

> <Valence>
2.678

> <Coulomb>
69.622

> <VdW>
0.279

> <VdW6>
-7.328

> <VdW12>
7.608

> <Bond>
0.212

> <Angle>
0.911

> <Pdih>
1.555

> <Idih>
0.000

> <Tether>
0.000

$$$$
VeraChem MOL file


 26 25  0  0  0  0  0  0  0  0999 V2000     
   19.9911   18.3704   25.5560 N   0  3  0  0  0  0  0  0  0  0  0  0
   20.1522   19.3504   25.2789 H   0  0  0  0  0  0  0  0  0  0  0  0
   20.8908   18.0385   25.9368 H   0  0  0  0  0  0  0  0  0  0  0  0
   19.6025   17.5470   24.3437 C   0  0  0  0  0  0  0  0  0  0  0  0
   18.6471   17.9247   23.9723 H   0  0  0  0  0  0  0  0  0  0  0  0
   19.4528   16.5170   24.6773 H   0  0  0  0  0  0  0  0  0  0  0  0
   20.6497   17.5709   23.2109 C   0  0  0  0  0  0  0  0  0  0  0  0
   21.5873   17.1350   23.5805 H   0  0  0  0  0  0  0  0  0  0  0  0
   20.3063   16.9140   22.4008 H   0  0  0  0  0  0  0  0  0  0  0  0
   20.9331   18.9827   22.6376 C   0  0  0  0  0  0  0  0  0  0  0  0
   21.7075   18.8864   21.8656 H   0  0  0  0  0  0  0  0  0  0  0  0
   21.3598   19.6256   23.4189 H   0  0  0  0  0  0  0  0  0  0  0  0
   19.6772   19.6586   22.0303 C   0  0  0  0  0  0  0  0  0  0  0  0
   19.2678   19.0274   21.2296 H   0  0  0  0  0  0  0  0  0  0  0  0
   18.8931   19.7340   22.7952 H   0  0  0  0  0  0  0  0  0  0  0  0
   19.9479   21.0799   21.4794 C   0  0  0  0  0  0  0  0  0  0  0  0
   20.3463   21.7196   22.2792 H   0  0  0  0  0  0  0  0  0  0  0  0
   18.9910   21.5278   21.1768 H   0  0  0  0  0  0  0  0  0  0  0  0
   20.9096   21.1001   20.2693 C   0  0  0  0  0  0  0  0  0  0  0  0
   20.5502   20.4417   19.4678 H   0  0  0  0  0  0  0  0  0  0  0  0
   21.9203   20.7800   20.5506 H   0  0  0  0  0  0  0  0  0  0  0  0
   20.9886   22.1151   19.8588 H   0  0  0  0  0  0  0  0  0  0  0  0
   18.8984   18.2862   26.6124 C   0  0  0  0  0  0  0  0  0  0  0  0
   17.9654   18.6720   26.1956 H   0  0  0  0  0  0  0  0  0  0  0  0
   18.7673   17.2438   26.9110 H   0  0  0  0  0  0  0  0  0  0  0  0
   19.1906   18.8841   27.4786 H   0  0  0  0  0  0  0  0  0  0  0  0
  1  2  1  0  0  0  0
  1  3  1  0  0  0  0
  1  4  1  0  0  0  0
  4  5  1  0  0  0  0
  4  6  1  0  0  0  0
  4  7  1  0  0  0  0
  7  8  1  0  0  0  0
  7  9  1  0  0  0  0
  7 10  1  0  0  0  0
 10 11  1  0  0  0  0
 10 12  1  0  0  0  0
 10 13  1  0  0  0  0
 13 14  1  0  0  0  0
 13 15  1  0  0  0  0
 13 16  1  0  0  0  0
 16 17  1  0  0  0  0
 16 18  1  0  0  0  0
 16 19  1  0  0  0  0
 19 20  1  0  0  0  0
 19 21  1  0  0  0  0
 19 22  1  0  0  0  0
  1 23  1  0  0  0  0
 23 24  1  0  0  0  0
 23 25  1  0  0  0  0
 23 26  1  0  0  0  0
M  END
> <VConfSearch Rank>
254

> <Conf_Id>
134

> <Delta U+W>
1.464

> <U+W>
23.306

> <U>
72.579

> <W>
-49.273

> <W(PB)>
-51.540

> <W(SA)>
2.267

> <Valence>
2.677

> <Coulomb>
69.622

> <VdW>
0.280

> <VdW6>
-7.328

> <VdW12>
7.608

> <Bond>
0.212

> <Angle>
0.911

> <Pdih>
1.555

> <Idih>
0.000

> <Tether>
0.000

$$$$
VeraChem MOL file


 26 25  0  0  0  0  0  0  0  0999 V2000     
   18.7827   19.6605   20.9357 N   0  3  0  0  0  0  0  0  0  0  0  0
   18.4313   20.4958   21.4294 H   0  0  0  0  0  0  0  0  0  0  0  0
   18.0110   18.9764   20.9698 H   0  0  0  0  0  0  0  0  0  0  0  0
   20.0027   19.1082   21.6452 C   0  0  0  0  0  0  0  0  0  0  0  0
   20.7911   19.8632   21.5936 H   0  0  0  0  0  0  0  0  0  0  0  0
   20.3369   18.2233   21.0976 H   0  0  0  0  0  0  0  0  0  0  0  0
   19.7363   18.7374   23.1154 C   0  0  0  0  0  0  0  0  0  0  0  0
   19.3842   19.6284   23.6504 H   0  0  0  0  0  0  0  0  0  0  0  0
   18.9329   17.9904   23.1640 H   0  0  0  0  0  0  0  0  0  0  0  0
   21.0087   18.1786   23.7946 C   0  0  0  0  0  0  0  0  0  0  0  0
   21.8011   18.9388   23.7816 H   0  0  0  0  0  0  0  0  0  0  0  0
   21.3896   17.3365   23.2001 H   0  0  0  0  0  0  0  0  0  0  0  0
   20.7722   17.6843   25.2454 C   0  0  0  0  0  0  0  0  0  0  0  0
   20.0606   16.8474   25.2262 H   0  0  0  0  0  0  0  0  0  0  0  0
   21.7126   17.2693   25.6337 H   0  0  0  0  0  0  0  0  0  0  0  0
   20.2529   18.7585   26.2352 C   0  0  0  0  0  0  0  0  0  0  0  0
   20.1247   18.2915   27.2218 H   0  0  0  0  0  0  0  0  0  0  0  0
   19.2539   19.1013   25.9344 H   0  0  0  0  0  0  0  0  0  0  0  0
   21.1997   19.9718   26.3789 C   0  0  0  0  0  0  0  0  0  0  0  0
   22.2111   19.6519   26.6612 H   0  0  0  0  0  0  0  0  0  0  0  0
   20.8343   20.6547   27.1568 H   0  0  0  0  0  0  0  0  0  0  0  0
   21.2673   20.5424   25.4443 H   0  0  0  0  0  0  0  0  0  0  0  0
   19.1318   20.0002   19.4933 C   0  0  0  0  0  0  0  0  0  0  0  0
   19.4691   19.0954   18.9828 H   0  0  0  0  0  0  0  0  0  0  0  0
   18.2449   20.3966   18.9940 H   0  0  0  0  0  0  0  0  0  0  0  0
   19.9267   20.7492   19.4830 H   0  0  0  0  0  0  0  0  0  0  0  0
  1  2  1  0  0  0  0
  1  3  1  0  0  0  0
  1  4  1  0  0  0  0
  4  5  1  0  0  0  0
  4  6  1  0  0  0  0
  4  7  1  0  0  0  0
  7  8  1  0  0  0  0
  7  9  1  0  0  0  0
  7 10  1  0  0  0  0
 10 11  1  0  0  0  0
 10 12  1  0  0  0  0
 10 13  1  0  0  0  0
 13 14  1  0  0  0  0
 13 15  1  0  0  0  0
 13 16  1  0  0  0  0
 16 17  1  0  0  0  0
 16 18  1  0  0  0  0
 16 19  1  0  0  0  0
 19 20  1  0  0  0  0
 19 21  1  0  0  0  0
 19 22  1  0  0  0  0
  1 23  1  0  0  0  0
 23 24  1  0  0  0  0
 23 25  1  0  0  0  0
 23 26  1  0  0  0  0
M  END
> <VConfSearch Rank>
255

> <Conf_Id>
30

> <Delta U+W>
0.910

> <U+W>
22.752

> <U>
71.870

> <W>
-49.118

> <W(PB)>
-51.409

> <W(SA)>
2.290

> <Valence>
2.682

> <Coulomb>
68.933

> <VdW>
0.255

> <VdW6>
-6.833

> <VdW12>
7.088

> <Bond>
0.205

> <Angle>
1.003

> <Pdih>
1.473

> <Idih>
0.000

> <Tether>
0.000

$$$$
VeraChem MOL file


 26 25  0  0  0  0  0  0  0  0999 V2000     
   21.3765   18.8368   20.9068 N   0  3  0  0  0  0  0  0  0  0  0  0
   22.3376   18.6795   21.2480 H   0  0  0  0  0  0  0  0  0  0  0  0
   21.2722   19.8613   20.8424 H   0  0  0  0  0  0  0  0  0  0  0  0
   20.3731   18.2695   21.8907 C   0  0  0  0  0  0  0  0  0  0  0  0
   20.5223   17.1877   21.9353 H   0  0  0  0  0  0  0  0  0  0  0  0
   19.3718   18.4631   21.4977 H   0  0  0  0  0  0  0  0  0  0  0  0
   20.4996   18.8685   23.3031 C   0  0  0  0  0  0  0  0  0  0  0  0
   21.5116   18.6859   23.6881 H   0  0  0  0  0  0  0  0  0  0  0  0
   20.3664   19.9561   23.2432 H   0  0  0  0  0  0  0  0  0  0  0  0
   19.4570   18.2583   24.2690 C   0  0  0  0  0  0  0  0  0  0  0  0
   19.5555   17.1639   24.2548 H   0  0  0  0  0  0  0  0  0  0  0  0
   18.4432   18.4739   23.9059 H   0  0  0  0  0  0  0  0  0  0  0  0
   19.6093   18.7431   25.7342 C   0  0  0  0  0  0  0  0  0  0  0  0
   18.8598   18.2319   26.3540 H   0  0  0  0  0  0  0  0  0  0  0  0
   20.5867   18.4194   26.1180 H   0  0  0  0  0  0  0  0  0  0  0  0
   19.4726   20.2731   25.9438 C   0  0  0  0  0  0  0  0  0  0  0  0
   20.2883   20.8012   25.4321 H   0  0  0  0  0  0  0  0  0  0  0  0
   19.5990   20.4918   27.0134 H   0  0  0  0  0  0  0  0  0  0  0  0
   18.1116   20.8387   25.4783 C   0  0  0  0  0  0  0  0  0  0  0  0
   17.9892   20.7496   24.3917 H   0  0  0  0  0  0  0  0  0  0  0  0
   18.0301   21.9032   25.7333 H   0  0  0  0  0  0  0  0  0  0  0  0
   17.2790   20.3127   25.9629 H   0  0  0  0  0  0  0  0  0  0  0  0
   21.1830   18.1935   19.5406 C   0  0  0  0  0  0  0  0  0  0  0  0
   21.9116   18.6106   18.8418 H   0  0  0  0  0  0  0  0  0  0  0  0
   21.3307   17.1148   19.6273 H   0  0  0  0  0  0  0  0  0  0  0  0
   20.1710   18.4011   19.1859 H   0  0  0  0  0  0  0  0  0  0  0  0
  1  2  1  0  0  0  0
  1  3  1  0  0  0  0
  1  4  1  0  0  0  0
  4  5  1  0  0  0  0
  4  6  1  0  0  0  0
  4  7  1  0  0  0  0
  7  8  1  0  0  0  0
  7  9  1  0  0  0  0
  7 10  1  0  0  0  0
 10 11  1  0  0  0  0
 10 12  1  0  0  0  0
 10 13  1  0  0  0  0
 13 14  1  0  0  0  0
 13 15  1  0  0  0  0
 13 16  1  0  0  0  0
 16 17  1  0  0  0  0
 16 18  1  0  0  0  0
 16 19  1  0  0  0  0
 19 20  1  0  0  0  0
 19 21  1  0  0  0  0
 19 22  1  0  0  0  0
  1 23  1  0  0  0  0
 23 24  1  0  0  0  0
 23 25  1  0  0  0  0
 23 26  1  0  0  0  0
M  END
> <VConfSearch Rank>
256

> <Conf_Id>
29

> <Delta U+W>
0.886

> <U+W>
22.729

> <U>
71.870

> <W>
-49.141

> <W(PB)>
-51.404

> <W(SA)>
2.262

> <Valence>
2.682

> <Coulomb>
68.933

> <VdW>
0.255

> <VdW6>
-6.833

> <VdW12>
7.088

> <Bond>
0.205

> <Angle>
1.003

> <Pdih>
1.473

> <Idih>
0.000

> <Tether>
0.000

$$$$
VeraChem MOL file


 26 25  0  0  0  0  0  0  0  0999 V2000     
   19.6657   17.8768   25.6227 N   0  3  0  0  0  0  0  0  0  0  0  0
   19.2335   16.9403   25.5922 H   0  0  0  0  0  0  0  0  0  0  0  0
   18.8841   18.5356   25.7627 H   0  0  0  0  0  0  0  0  0  0  0  0
   20.3696   18.1705   24.3132 C   0  0  0  0  0  0  0  0  0  0  0  0
   21.1792   17.4456   24.1971 H   0  0  0  0  0  0  0  0  0  0  0  0
   20.8082   19.1685   24.3872 H   0  0  0  0  0  0  0  0  0  0  0  0
   19.4348   18.1035   23.0906 C   0  0  0  0  0  0  0  0  0  0  0  0
   18.9720   17.1088   23.0458 H   0  0  0  0  0  0  0  0  0  0  0  0
   18.6130   18.8205   23.2132 H   0  0  0  0  0  0  0  0  0  0  0  0
   20.1760   18.3708   21.7570 C   0  0  0  0  0  0  0  0  0  0  0  0
   19.4617   18.2904   20.9268 H   0  0  0  0  0  0  0  0  0  0  0  0
   20.9109   17.5706   21.5930 H   0  0  0  0  0  0  0  0  0  0  0  0
   20.9083   19.7380   21.6813 C   0  0  0  0  0  0  0  0  0  0  0  0
   21.7351   19.7497   22.4041 H   0  0  0  0  0  0  0  0  0  0  0  0
   21.3801   19.8286   20.6931 H   0  0  0  0  0  0  0  0  0  0  0  0
   20.0131   20.9800   21.9233 C   0  0  0  0  0  0  0  0  0  0  0  0
   20.6390   21.8809   21.8574 H   0  0  0  0  0  0  0  0  0  0  0  0
   19.6132   20.9667   22.9461 H   0  0  0  0  0  0  0  0  0  0  0  0
   18.8523   21.1059   20.9106 C   0  0  0  0  0  0  0  0  0  0  0  0
   18.3019   22.0419   21.0708 H   0  0  0  0  0  0  0  0  0  0  0  0
   18.1371   20.2804   21.0132 H   0  0  0  0  0  0  0  0  0  0  0  0
   19.2275   21.1094   19.8790 H   0  0  0  0  0  0  0  0  0  0  0  0
   20.6562   17.9705   26.7750 C   0  0  0  0  0  0  0  0  0  0  0  0
   20.1369   17.7566   27.7119 H   0  0  0  0  0  0  0  0  0  0  0  0
   21.4555   17.2421   26.6217 H   0  0  0  0  0  0  0  0  0  0  0  0
   21.0752   18.9787   26.8074 H   0  0  0  0  0  0  0  0  0  0  0  0
  1  2  1  0  0  0  0
  1  3  1  0  0  0  0
  1  4  1  0  0  0  0
  4  5  1  0  0  0  0
  4  6  1  0  0  0  0
  4  7  1  0  0  0  0
  7  8  1  0  0  0  0
  7  9  1  0  0  0  0
  7 10  1  0  0  0  0
 10 11  1  0  0  0  0
 10 12  1  0  0  0  0
 10 13  1  0  0  0  0
 13 14  1  0  0  0  0
 13 15  1  0  0  0  0
 13 16  1  0  0  0  0
 16 17  1  0  0  0  0
 16 18  1  0  0  0  0
 16 19  1  0  0  0  0
 19 20  1  0  0  0  0
 19 21  1  0  0  0  0
 19 22  1  0  0  0  0
  1 23  1  0  0  0  0
 23 24  1  0  0  0  0
 23 25  1  0  0  0  0
 23 26  1  0  0  0  0
M  END
> <VConfSearch Rank>
257

> <Conf_Id>
82

> <Delta U+W>
1.026

> <U+W>
22.868

> <U>
72.455

> <W>
-49.586

> <W(PB)>
-51.821

> <W(SA)>
2.234

> <Valence>
2.908

> <Coulomb>
69.435

> <VdW>
0.112

> <VdW6>
-7.765

> <VdW12>
7.877

> <Bond>
0.233

> <Angle>
1.170

> <Pdih>
1.506

> <Idih>
0.000

> <Tether>
0.000

$$$$
VeraChem MOL file


 26 25  0  0  0  0  0  0  0  0999 V2000     
   19.4008   16.8625   24.5244 N   0  3  0  0  0  0  0  0  0  0  0  0
   20.2344   17.0155   25.1129 H   0  0  0  0  0  0  0  0  0  0  0  0
   19.5839   15.9862   24.0112 H   0  0  0  0  0  0  0  0  0  0  0  0
   19.2287   18.0116   23.5517 C   0  0  0  0  0  0  0  0  0  0  0  0
   19.0409   18.9164   24.1348 H   0  0  0  0  0  0  0  0  0  0  0  0
   18.3461   17.8055   22.9411 H   0  0  0  0  0  0  0  0  0  0  0  0
   20.4513   18.2262   22.6395 C   0  0  0  0  0  0  0  0  0  0  0  0
   21.3412   18.4184   23.2524 H   0  0  0  0  0  0  0  0  0  0  0  0
   20.6531   17.3003   22.0848 H   0  0  0  0  0  0  0  0  0  0  0  0
   20.2460   19.3808   21.6276 C   0  0  0  0  0  0  0  0  0  0  0  0
   19.4290   19.1121   20.9437 H   0  0  0  0  0  0  0  0  0  0  0  0
   21.1412   19.4698   20.9978 H   0  0  0  0  0  0  0  0  0  0  0  0
   19.9226   20.7582   22.2675 C   0  0  0  0  0  0  0  0  0  0  0  0
   19.8161   21.5010   21.4650 H   0  0  0  0  0  0  0  0  0  0  0  0
   18.9406   20.7115   22.7572 H   0  0  0  0  0  0  0  0  0  0  0  0
   20.9684   21.2727   23.2892 C   0  0  0  0  0  0  0  0  0  0  0  0
   21.0166   20.5994   24.1555 H   0  0  0  0  0  0  0  0  0  0  0  0
   20.6282   22.2416   23.6805 H   0  0  0  0  0  0  0  0  0  0  0  0
   22.3804   21.4483   22.6855 C   0  0  0  0  0  0  0  0  0  0  0  0
   22.8094   20.4866   22.3781 H   0  0  0  0  0  0  0  0  0  0  0  0
   23.0612   21.8934   23.4225 H   0  0  0  0  0  0  0  0  0  0  0  0
   22.3554   22.1093   21.8095 H   0  0  0  0  0  0  0  0  0  0  0  0
   18.1551   16.7249   25.3887 C   0  0  0  0  0  0  0  0  0  0  0  0
   17.2927   16.5308   24.7472 H   0  0  0  0  0  0  0  0  0  0  0  0
   18.2918   15.8939   26.0843 H   0  0  0  0  0  0  0  0  0  0  0  0
   18.0008   17.6512   25.9464 H   0  0  0  0  0  0  0  0  0  0  0  0
  1  2  1  0  0  0  0
  1  3  1  0  0  0  0
  1  4  1  0  0  0  0
  4  5  1  0  0  0  0
  4  6  1  0  0  0  0
  4  7  1  0  0  0  0
  7  8  1  0  0  0  0
  7  9  1  0  0  0  0
  7 10  1  0  0  0  0
 10 11  1  0  0  0  0
 10 12  1  0  0  0  0
 10 13  1  0  0  0  0
 13 14  1  0  0  0  0
 13 15  1  0  0  0  0
 13 16  1  0  0  0  0
 16 17  1  0  0  0  0
 16 18  1  0  0  0  0
 16 19  1  0  0  0  0
 19 20  1  0  0  0  0
 19 21  1  0  0  0  0
 19 22  1  0  0  0  0
  1 23  1  0  0  0  0
 23 24  1  0  0  0  0
 23 25  1  0  0  0  0
 23 26  1  0  0  0  0
M  END
> <VConfSearch Rank>
258

> <Conf_Id>
71

> <Delta U+W>
1.096

> <U+W>
22.938

> <U>
72.455

> <W>
-49.517

> <W(PB)>
-51.795

> <W(SA)>
2.278

> <Valence>
2.908

> <Coulomb>
69.435

> <VdW>
0.112

> <VdW6>
-7.766

> <VdW12>
7.877

> <Bond>
0.233

> <Angle>
1.170

> <Pdih>
1.506

> <Idih>
0.000

> <Tether>
0.000

$$$$
VeraChem MOL file


 26 25  0  0  0  0  0  0  0  0999 V2000     
   20.1486   16.6873   22.9716 N   0  3  0  0  0  0  0  0  0  0  0  0
   20.1424   17.3593   22.1898 H   0  0  0  0  0  0  0  0  0  0  0  0
   19.5074   15.9313   22.6832 H   0  0  0  0  0  0  0  0  0  0  0  0
   19.6192   17.3524   24.2322 C   0  0  0  0  0  0  0  0  0  0  0  0
   19.6598   16.6154   25.0382 H   0  0  0  0  0  0  0  0  0  0  0  0
   18.5689   17.5967   24.0561 H   0  0  0  0  0  0  0  0  0  0  0  0
   20.3705   18.6324   24.6640 C   0  0  0  0  0  0  0  0  0  0  0  0
   19.8985   19.0254   25.5741 H   0  0  0  0  0  0  0  0  0  0  0  0
   21.3988   18.3722   24.9464 H   0  0  0  0  0  0  0  0  0  0  0  0
   20.4029   19.7442   23.5850 C   0  0  0  0  0  0  0  0  0  0  0  0
   20.9436   19.3874   22.6983 H   0  0  0  0  0  0  0  0  0  0  0  0
   20.9871   20.5849   23.9808 H   0  0  0  0  0  0  0  0  0  0  0  0
   18.9921   20.2401   23.1769 C   0  0  0  0  0  0  0  0  0  0  0  0
   18.3961   19.3948   22.8088 H   0  0  0  0  0  0  0  0  0  0  0  0
   18.4660   20.6269   24.0605 H   0  0  0  0  0  0  0  0  0  0  0  0
   19.0162   21.3267   22.0744 C   0  0  0  0  0  0  0  0  0  0  0  0
   17.9827   21.5374   21.7656 H   0  0  0  0  0  0  0  0  0  0  0  0
   19.5300   20.9410   21.1827 H   0  0  0  0  0  0  0  0  0  0  0  0
   19.6785   22.6488   22.5252 C   0  0  0  0  0  0  0  0  0  0  0  0
   20.7491   22.5172   22.7246 H   0  0  0  0  0  0  0  0  0  0  0  0
   19.2038   23.0384   23.4350 H   0  0  0  0  0  0  0  0  0  0  0  0
   19.5813   23.4128   21.7431 H   0  0  0  0  0  0  0  0  0  0  0  0
   21.5485   16.1256   23.1909 C   0  0  0  0  0  0  0  0  0  0  0  0
   21.8824   15.6306   22.2763 H   0  0  0  0  0  0  0  0  0  0  0  0
   22.2304   16.9422   23.4366 H   0  0  0  0  0  0  0  0  0  0  0  0
   21.5213   15.4053   24.0114 H   0  0  0  0  0  0  0  0  0  0  0  0
  1  2  1  0  0  0  0
  1  3  1  0  0  0  0
  1  4  1  0  0  0  0
  4  5  1  0  0  0  0
  4  6  1  0  0  0  0
  4  7  1  0  0  0  0
  7  8  1  0  0  0  0
  7  9  1  0  0  0  0
  7 10  1  0  0  0  0
 10 11  1  0  0  0  0
 10 12  1  0  0  0  0
 10 13  1  0  0  0  0
 13 14  1  0  0  0  0
 13 15  1  0  0  0  0
 13 16  1  0  0  0  0
 16 17  1  0  0  0  0
 16 18  1  0  0  0  0
 16 19  1  0  0  0  0
 19 20  1  0  0  0  0
 19 21  1  0  0  0  0
 19 22  1  0  0  0  0
  1 23  1  0  0  0  0
 23 24  1  0  0  0  0
 23 25  1  0  0  0  0
 23 26  1  0  0  0  0
M  END
> <VConfSearch Rank>
259

> <Conf_Id>
84

> <Delta U+W>
1.456

> <U+W>
23.298

> <U>
73.042

> <W>
-49.744

> <W(PB)>
-51.966

> <W(SA)>
2.222

> <Valence>
2.938

> <Coulomb>
69.625

> <VdW>
0.478

> <VdW6>
-8.182

> <VdW12>
8.660

> <Bond>
0.253

> <Angle>
1.038

> <Pdih>
1.647

> <Idih>
0.000

> <Tether>
0.000

$$$$
VeraChem MOL file


 26 25  0  0  0  0  0  0  0  0999 V2000     
   18.0882   20.4524   23.8418 N   0  3  0  0  0  0  0  0  0  0  0  0
   18.7772   20.0915   24.5186 H   0  0  0  0  0  0  0  0  0  0  0  0
   17.1799   20.0607   24.1352 H   0  0  0  0  0  0  0  0  0  0  0  0
   18.4352   19.9752   22.4452 C   0  0  0  0  0  0  0  0  0  0  0  0
   19.3977   20.4125   22.1694 H   0  0  0  0  0  0  0  0  0  0  0  0
   17.6766   20.3674   21.7631 H   0  0  0  0  0  0  0  0  0  0  0  0
   18.5017   18.4399   22.3089 C   0  0  0  0  0  0  0  0  0  0  0  0
   17.5151   18.0154   22.5373 H   0  0  0  0  0  0  0  0  0  0  0  0
   18.7066   18.1890   21.2597 H   0  0  0  0  0  0  0  0  0  0  0  0
   19.5692   17.7711   23.2115 C   0  0  0  0  0  0  0  0  0  0  0  0
   19.5298   16.6846   23.0517 H   0  0  0  0  0  0  0  0  0  0  0  0
   19.3193   17.9318   24.2687 H   0  0  0  0  0  0  0  0  0  0  0  0
   21.0062   18.2730   22.9309 C   0  0  0  0  0  0  0  0  0  0  0  0
   21.2429   18.1321   21.8671 H   0  0  0  0  0  0  0  0  0  0  0  0
   21.0749   19.3505   23.1317 H   0  0  0  0  0  0  0  0  0  0  0  0
   22.0520   17.5308   23.7926 C   0  0  0  0  0  0  0  0  0  0  0  0
   22.0000   16.4514   23.5922 H   0  0  0  0  0  0  0  0  0  0  0  0
   21.8192   17.6666   24.8581 H   0  0  0  0  0  0  0  0  0  0  0  0
   23.4844   18.0343   23.5137 C   0  0  0  0  0  0  0  0  0  0  0  0
   23.7592   17.8807   22.4620 H   0  0  0  0  0  0  0  0  0  0  0  0
   24.2123   17.4954   24.1339 H   0  0  0  0  0  0  0  0  0  0  0  0
   23.5777   19.1047   23.7386 H   0  0  0  0  0  0  0  0  0  0  0  0
   18.0517   21.9738   23.8760 C   0  0  0  0  0  0  0  0  0  0  0  0
   17.2947   22.3306   23.1741 H   0  0  0  0  0  0  0  0  0  0  0  0
   17.8018   22.3036   24.8869 H   0  0  0  0  0  0  0  0  0  0  0  0
   19.0320   22.3631   23.5926 H   0  0  0  0  0  0  0  0  0  0  0  0
  1  2  1  0  0  0  0
  1  3  1  0  0  0  0
  1  4  1  0  0  0  0
  4  5  1  0  0  0  0
  4  6  1  0  0  0  0
  4  7  1  0  0  0  0
  7  8  1  0  0  0  0
  7  9  1  0  0  0  0
  7 10  1  0  0  0  0
 10 11  1  0  0  0  0
 10 12  1  0  0  0  0
 10 13  1  0  0  0  0
 13 14  1  0  0  0  0
 13 15  1  0  0  0  0
 13 16  1  0  0  0  0
 16 17  1  0  0  0  0
 16 18  1  0  0  0  0
 16 19  1  0  0  0  0
 19 20  1  0  0  0  0
 19 21  1  0  0  0  0
 19 22  1  0  0  0  0
  1 23  1  0  0  0  0
 23 24  1  0  0  0  0
 23 25  1  0  0  0  0
 23 26  1  0  0  0  0
M  END
> <VConfSearch Rank>
260

> <Conf_Id>
73

> <Delta U+W>
0.884

> <U+W>
22.726

> <U>
71.905

> <W>
-49.179

> <W(PB)>
-51.494

> <W(SA)>
2.315

> <Valence>
2.125

> <Coulomb>
69.686

> <VdW>
0.093

> <VdW6>
-6.766

> <VdW12>
6.859

> <Bond>
0.169

> <Angle>
0.621

> <Pdih>
1.336

> <Idih>
0.000

> <Tether>
0.000

$$$$
VeraChem MOL file


 26 25  0  0  0  0  0  0  0  0999 V2000     
   22.8871   20.6105   23.5404 N   0  3  0  0  0  0  0  0  0  0  0  0
   23.4706   19.7629   23.4630 H   0  0  0  0  0  0  0  0  0  0  0  0
   22.8121   20.8005   24.5519 H   0  0  0  0  0  0  0  0  0  0  0  0
   21.5136   20.3552   22.9529 C   0  0  0  0  0  0  0  0  0  0  0  0
   21.6377   20.1507   21.8865 H   0  0  0  0  0  0  0  0  0  0  0  0
   20.9269   21.2709   23.0619 H   0  0  0  0  0  0  0  0  0  0  0  0
   20.7733   19.1831   23.6224 C   0  0  0  0  0  0  0  0  0  0  0  0
   21.3739   18.2688   23.5250 H   0  0  0  0  0  0  0  0  0  0  0  0
   20.6654   19.3852   24.6964 H   0  0  0  0  0  0  0  0  0  0  0  0
   19.3806   18.9604   22.9923 C   0  0  0  0  0  0  0  0  0  0  0  0
   19.4924   18.7638   21.9168 H   0  0  0  0  0  0  0  0  0  0  0  0
   18.7848   19.8791   23.0867 H   0  0  0  0  0  0  0  0  0  0  0  0
   18.6275   17.7854   23.6570 C   0  0  0  0  0  0  0  0  0  0  0  0
   19.2230   16.8667   23.5625 H   0  0  0  0  0  0  0  0  0  0  0  0
   18.5155   17.9819   24.7323 H   0  0  0  0  0  0  0  0  0  0  0  0
   17.2346   17.5630   23.0266 C   0  0  0  0  0  0  0  0  0  0  0  0
   17.3414   17.3637   21.9510 H   0  0  0  0  0  0  0  0  0  0  0  0
   16.6340   18.4787   23.1208 H   0  0  0  0  0  0  0  0  0  0  0  0
   16.4857   16.3890   23.6928 C   0  0  0  0  0  0  0  0  0  0  0  0
   15.4995   16.2468   23.2319 H   0  0  0  0  0  0  0  0  0  0  0  0
   16.3330   16.5749   24.7639 H   0  0  0  0  0  0  0  0  0  0  0  0
   17.0460   15.4511   23.5850 H   0  0  0  0  0  0  0  0  0  0  0  0
   23.5475   21.7807   22.8247 C   0  0  0  0  0  0  0  0  0  0  0  0
   22.9293   22.6726   22.9485 H   0  0  0  0  0  0  0  0  0  0  0  0
   24.5355   21.9537   23.2572 H   0  0  0  0  0  0  0  0  0  0  0  0
   23.6461   21.5431   21.7632 H   0  0  0  0  0  0  0  0  0  0  0  0
  1  2  1  0  0  0  0
  1  3  1  0  0  0  0
  1  4  1  0  0  0  0
  4  5  1  0  0  0  0
  4  6  1  0  0  0  0
  4  7  1  0  0  0  0
  7  8  1  0  0  0  0
  7  9  1  0  0  0  0
  7 10  1  0  0  0  0
 10 11  1  0  0  0  0
 10 12  1  0  0  0  0
 10 13  1  0  0  0  0
 13 14  1  0  0  0  0
 13 15  1  0  0  0  0
 13 16  1  0  0  0  0
 16 17  1  0  0  0  0
 16 18  1  0  0  0  0
 16 19  1  0  0  0  0
 19 20  1  0  0  0  0
 19 21  1  0  0  0  0
 19 22  1  0  0  0  0
  1 23  1  0  0  0  0
 23 24  1  0  0  0  0
 23 25  1  0  0  0  0
 23 26  1  0  0  0  0
M  END
> <VConfSearch Rank>
261

> <Conf_Id>
11

> <Delta U+W>
0.000

> <U+W>
21.842

> <U>
70.357

> <W>
-48.515

> <W(PB)>
-50.856

> <W(SA)>
2.341

> <Valence>
1.714

> <Coulomb>
68.480

> <VdW>
0.163

> <VdW6>
-5.268

> <VdW12>
5.431

> <Bond>
0.126

> <Angle>
0.350

> <Pdih>
1.238

> <Idih>
0.000

> <Tether>
0.000

$$$$
VeraChem MOL file


 26 25  0  0  0  0  0  0  0  0999 V2000     
   17.3209   17.1818   24.1408 N   0  3  0  0  0  0  0  0  0  0  0  0
   17.1050   16.1953   24.3556 H   0  0  0  0  0  0  0  0  0  0  0  0
   16.7969   17.3865   23.2759 H   0  0  0  0  0  0  0  0  0  0  0  0
   18.8134   17.3346   23.8996 C   0  0  0  0  0  0  0  0  0  0  0  0
   19.1096   16.5543   23.1938 H   0  0  0  0  0  0  0  0  0  0  0  0
   19.3281   17.1489   24.8457 H   0  0  0  0  0  0  0  0  0  0  0  0
   19.2336   18.7067   23.3344 C   0  0  0  0  0  0  0  0  0  0  0  0
   18.6748   18.9064   22.4105 H   0  0  0  0  0  0  0  0  0  0  0  0
   18.9703   19.4984   24.0477 H   0  0  0  0  0  0  0  0  0  0  0  0
   20.7504   18.7569   23.0461 C   0  0  0  0  0  0  0  0  0  0  0  0
   21.0142   17.9629   22.3335 H   0  0  0  0  0  0  0  0  0  0  0  0
   21.3057   18.5502   23.9716 H   0  0  0  0  0  0  0  0  0  0  0  0
   21.1848   20.1271   22.4776 C   0  0  0  0  0  0  0  0  0  0  0  0
   20.6294   20.3340   21.5522 H   0  0  0  0  0  0  0  0  0  0  0  0
   20.9213   20.9211   23.1901 H   0  0  0  0  0  0  0  0  0  0  0  0
   22.7019   20.1769   22.1893 C   0  0  0  0  0  0  0  0  0  0  0  0
   22.9702   19.3860   21.4748 H   0  0  0  0  0  0  0  0  0  0  0  0
   23.2621   19.9729   23.1126 H   0  0  0  0  0  0  0  0  0  0  0  0
   23.1320   21.5466   21.6218 C   0  0  0  0  0  0  0  0  0  0  0  0
   24.2116   21.5624   21.4237 H   0  0  0  0  0  0  0  0  0  0  0  0
   22.9076   22.3554   22.3294 H   0  0  0  0  0  0  0  0  0  0  0  0
   22.6135   21.7638   20.6788 H   0  0  0  0  0  0  0  0  0  0  0  0
   16.8513   18.0749   25.2837 C   0  0  0  0  0  0  0  0  0  0  0  0
   17.0239   19.1204   25.0205 H   0  0  0  0  0  0  0  0  0  0  0  0
   15.7846   17.9099   25.4507 H   0  0  0  0  0  0  0  0  0  0  0  0
   17.4092   17.8231   26.1883 H   0  0  0  0  0  0  0  0  0  0  0  0
  1  2  1  0  0  0  0
  1  3  1  0  0  0  0
  1  4  1  0  0  0  0
  4  5  1  0  0  0  0
  4  6  1  0  0  0  0
  4  7  1  0  0  0  0
  7  8  1  0  0  0  0
  7  9  1  0  0  0  0
  7 10  1  0  0  0  0
 10 11  1  0  0  0  0
 10 12  1  0  0  0  0
 10 13  1  0  0  0  0
 13 14  1  0  0  0  0
 13 15  1  0  0  0  0
 13 16  1  0  0  0  0
 16 17  1  0  0  0  0
 16 18  1  0  0  0  0
 16 19  1  0  0  0  0
 19 20  1  0  0  0  0
 19 21  1  0  0  0  0
 19 22  1  0  0  0  0
  1 23  1  0  0  0  0
 23 24  1  0  0  0  0
 23 25  1  0  0  0  0
 23 26  1  0  0  0  0
M  END
> <VConfSearch Rank>
262

> <Conf_Id>
102

> <Delta U+W>
0.121

> <U+W>
21.963

> <U>
70.745

> <W>
-48.782

> <W(PB)>
-51.111

> <W(SA)>
2.329

> <Valence>
1.993

> <Coulomb>
68.323

> <VdW>
0.429

> <VdW6>
-5.973

> <VdW12>
6.402

> <Bond>
0.161

> <Angle>
0.472

> <Pdih>
1.360

> <Idih>
0.000

> <Tether>
0.000

$$$$
VeraChem MOL file


 26 25  0  0  0  0  0  0  0  0999 V2000     
   18.4232   17.6444   20.6979 N   0  3  0  0  0  0  0  0  0  0  0  0
   17.6757   18.3555   20.6936 H   0  0  0  0  0  0  0  0  0  0  0  0
   17.9449   16.7542   20.4862 H   0  0  0  0  0  0  0  0  0  0  0  0
   19.0629   17.5629   22.0739 C   0  0  0  0  0  0  0  0  0  0  0  0
   19.8722   16.8300   22.0260 H   0  0  0  0  0  0  0  0  0  0  0  0
   18.3034   17.1847   22.7629 H   0  0  0  0  0  0  0  0  0  0  0  0
   19.6016   18.9049   22.6101 C   0  0  0  0  0  0  0  0  0  0  0  0
   20.3883   19.2820   21.9439 H   0  0  0  0  0  0  0  0  0  0  0  0
   18.7937   19.6485   22.6078 H   0  0  0  0  0  0  0  0  0  0  0  0
   20.1660   18.7546   24.0402 C   0  0  0  0  0  0  0  0  0  0  0  0
   20.9697   18.0050   24.0394 H   0  0  0  0  0  0  0  0  0  0  0  0
   19.3788   18.3754   24.7067 H   0  0  0  0  0  0  0  0  0  0  0  0
   20.7084   20.0935   24.5903 C   0  0  0  0  0  0  0  0  0  0  0  0
   21.4959   20.4726   23.9241 H   0  0  0  0  0  0  0  0  0  0  0  0
   19.9050   20.8432   24.5908 H   0  0  0  0  0  0  0  0  0  0  0  0
   21.2728   19.9428   26.0206 C   0  0  0  0  0  0  0  0  0  0  0  0
   22.0786   19.1954   26.0250 H   0  0  0  0  0  0  0  0  0  0  0  0
   20.4880   19.5662   26.6916 H   0  0  0  0  0  0  0  0  0  0  0  0
   21.8137   21.2816   26.5665 C   0  0  0  0  0  0  0  0  0  0  0  0
   22.6247   21.6669   25.9348 H   0  0  0  0  0  0  0  0  0  0  0  0
   22.2097   21.1545   27.5824 H   0  0  0  0  0  0  0  0  0  0  0  0
   21.0216   22.0407   26.6065 H   0  0  0  0  0  0  0  0  0  0  0  0
   19.4617   17.9423   19.6222 C   0  0  0  0  0  0  0  0  0  0  0  0
   20.2283   17.1645   19.6385 H   0  0  0  0  0  0  0  0  0  0  0  0
   18.9712   17.9560   18.6464 H   0  0  0  0  0  0  0  0  0  0  0  0
   19.9164   18.9154   19.8178 H   0  0  0  0  0  0  0  0  0  0  0  0
  1  2  1  0  0  0  0
  1  3  1  0  0  0  0
  1  4  1  0  0  0  0
  4  5  1  0  0  0  0
  4  6  1  0  0  0  0
  4  7  1  0  0  0  0
  7  8  1  0  0  0  0
  7  9  1  0  0  0  0
  7 10  1  0  0  0  0
 10 11  1  0  0  0  0
 10 12  1  0  0  0  0
 10 13  1  0  0  0  0
 13 14  1  0  0  0  0
 13 15  1  0  0  0  0
 13 16  1  0  0  0  0
 16 17  1  0  0  0  0
 16 18  1  0  0  0  0
 16 19  1  0  0  0  0
 19 20  1  0  0  0  0
 19 21  1  0  0  0  0
 19 22  1  0  0  0  0
  1 23  1  0  0  0  0
 23 24  1  0  0  0  0
 23 25  1  0  0  0  0
 23 26  1  0  0  0  0
M  END
> <VConfSearch Rank>
263

> <Conf_Id>
37

> <Delta U+W>
0.125

> <U+W>
21.967

> <U>
70.745

> <W>
-48.778

> <W(PB)>
-51.115

> <W(SA)>
2.337

> <Valence>
1.993

> <Coulomb>
68.323

> <VdW>
0.429

> <VdW6>
-5.973

> <VdW12>
6.403

> <Bond>
0.161

> <Angle>
0.472

> <Pdih>
1.360

> <Idih>
0.000

> <Tether>
0.000

$$$$
VeraChem MOL file


 26 25  0  0  0  0  0  0  0  0999 V2000     
   18.3925   16.8069   24.4311 N   0  3  0  0  0  0  0  0  0  0  0  0
   17.5007   16.7083   23.9214 H   0  0  0  0  0  0  0  0  0  0  0  0
   18.1495   17.2653   25.3231 H   0  0  0  0  0  0  0  0  0  0  0  0
   19.3527   17.6740   23.6421 C   0  0  0  0  0  0  0  0  0  0  0  0
   19.5754   17.1597   22.7038 H   0  0  0  0  0  0  0  0  0  0  0  0
   20.2771   17.7555   24.2186 H   0  0  0  0  0  0  0  0  0  0  0  0
   18.7977   19.0801   23.3431 C   0  0  0  0  0  0  0  0  0  0  0  0
   17.8454   18.9816   22.8051 H   0  0  0  0  0  0  0  0  0  0  0  0
   18.5741   19.5977   24.2855 H   0  0  0  0  0  0  0  0  0  0  0  0
   19.7654   19.9393   22.4949 C   0  0  0  0  0  0  0  0  0  0  0  0
   19.2539   20.8744   22.2325 H   0  0  0  0  0  0  0  0  0  0  0  0
   19.9782   19.4243   21.5479 H   0  0  0  0  0  0  0  0  0  0  0  0
   21.0938   20.2606   23.2263 C   0  0  0  0  0  0  0  0  0  0  0  0
   20.8815   20.7936   24.1634 H   0  0  0  0  0  0  0  0  0  0  0  0
   21.5930   19.3246   23.5099 H   0  0  0  0  0  0  0  0  0  0  0  0
   22.0817   21.0923   22.3725 C   0  0  0  0  0  0  0  0  0  0  0  0
   22.3068   20.5586   21.4385 H   0  0  0  0  0  0  0  0  0  0  0  0
   23.0335   21.1743   22.9158 H   0  0  0  0  0  0  0  0  0  0  0  0
   21.5713   22.5151   22.0487 C   0  0  0  0  0  0  0  0  0  0  0  0
   20.6887   22.4897   21.3978 H   0  0  0  0  0  0  0  0  0  0  0  0
   22.3468   23.0919   21.5283 H   0  0  0  0  0  0  0  0  0  0  0  0
   21.3080   23.0587   22.9653 H   0  0  0  0  0  0  0  0  0  0  0  0
   19.0165   15.4416   24.6848 C   0  0  0  0  0  0  0  0  0  0  0  0
   19.9402   15.5689   25.2536 H   0  0  0  0  0  0  0  0  0  0  0  0
   18.3148   14.8272   25.2535 H   0  0  0  0  0  0  0  0  0  0  0  0
   19.2341   14.9627   23.7276 H   0  0  0  0  0  0  0  0  0  0  0  0
  1  2  1  0  0  0  0
  1  3  1  0  0  0  0
  1  4  1  0  0  0  0
  4  5  1  0  0  0  0
  4  6  1  0  0  0  0
  4  7  1  0  0  0  0
  7  8  1  0  0  0  0
  7  9  1  0  0  0  0
  7 10  1  0  0  0  0
 10 11  1  0  0  0  0
 10 12  1  0  0  0  0
 10 13  1  0  0  0  0
 13 14  1  0  0  0  0
 13 15  1  0  0  0  0
 13 16  1  0  0  0  0
 16 17  1  0  0  0  0
 16 18  1  0  0  0  0
 16 19  1  0  0  0  0
 19 20  1  0  0  0  0
 19 21  1  0  0  0  0
 19 22  1  0  0  0  0
  1 23  1  0  0  0  0
 23 24  1  0  0  0  0
 23 25  1  0  0  0  0
 23 26  1  0  0  0  0
M  END
> <VConfSearch Rank>
264

> <Conf_Id>
137

> <Delta U+W>
1.038

> <U+W>
22.880

> <U>
71.810

> <W>
-48.930

> <W(PB)>
-51.257

> <W(SA)>
2.327

> <Valence>
2.568

> <Coulomb>
68.877

> <VdW>
0.364

> <VdW6>
-6.470

> <VdW12>
6.834

> <Bond>
0.191

> <Angle>
0.752

> <Pdih>
1.626

> <Idih>
0.000

> <Tether>
0.000

$$$$
VeraChem MOL file


 26 25  0  0  0  0  0  0  0  0999 V2000     
   20.4386   17.8182   25.9698 N   0  3  0  0  0  0  0  0  0  0  0  0
   20.1784   18.7325   26.3713 H   0  0  0  0  0  0  0  0  0  0  0  0
   21.4699   17.8171   25.9347 H   0  0  0  0  0  0  0  0  0  0  0  0
   19.8678   17.6786   24.5728 C   0  0  0  0  0  0  0  0  0  0  0  0
   18.7779   17.6924   24.6530 H   0  0  0  0  0  0  0  0  0  0  0  0
   20.1720   16.7042   24.1823 H   0  0  0  0  0  0  0  0  0  0  0  0
   20.3303   18.7891   23.6121 C   0  0  0  0  0  0  0  0  0  0  0  0
   20.0361   19.7626   24.0238 H   0  0  0  0  0  0  0  0  0  0  0  0
   21.4265   18.7818   23.5473 H   0  0  0  0  0  0  0  0  0  0  0  0
   19.7238   18.6013   22.2014 C   0  0  0  0  0  0  0  0  0  0  0  0
   18.6278   18.6575   22.2586 H   0  0  0  0  0  0  0  0  0  0  0  0
   19.9616   17.5900   21.8429 H   0  0  0  0  0  0  0  0  0  0  0  0
   20.2425   19.6251   21.1615 C   0  0  0  0  0  0  0  0  0  0  0  0
   21.3369   19.5567   21.0911 H   0  0  0  0  0  0  0  0  0  0  0  0
   19.8528   19.3448   20.1731 H   0  0  0  0  0  0  0  0  0  0  0  0
   19.8296   21.0844   21.4686 C   0  0  0  0  0  0  0  0  0  0  0  0
   20.2746   21.4133   22.4171 H   0  0  0  0  0  0  0  0  0  0  0  0
   18.7390   21.1439   21.5905 H   0  0  0  0  0  0  0  0  0  0  0  0
   20.2720   22.0492   20.3477 C   0  0  0  0  0  0  0  0  0  0  0  0
   21.3625   22.0344   20.2218 H   0  0  0  0  0  0  0  0  0  0  0  0
   19.9742   23.0792   20.5828 H   0  0  0  0  0  0  0  0  0  0  0  0
   19.8135   21.7772   19.3881 H   0  0  0  0  0  0  0  0  0  0  0  0
   19.9332   16.6846   26.8515 C   0  0  0  0  0  0  0  0  0  0  0  0
   20.2487   15.7299   26.4250 H   0  0  0  0  0  0  0  0  0  0  0  0
   20.3517   16.7969   27.8542 H   0  0  0  0  0  0  0  0  0  0  0  0
   18.8429   16.7261   26.9001 H   0  0  0  0  0  0  0  0  0  0  0  0
  1  2  1  0  0  0  0
  1  3  1  0  0  0  0
  1  4  1  0  0  0  0
  4  5  1  0  0  0  0
  4  6  1  0  0  0  0
  4  7  1  0  0  0  0
  7  8  1  0  0  0  0
  7  9  1  0  0  0  0
  7 10  1  0  0  0  0
 10 11  1  0  0  0  0
 10 12  1  0  0  0  0
 10 13  1  0  0  0  0
 13 14  1  0  0  0  0
 13 15  1  0  0  0  0
 13 16  1  0  0  0  0
 16 17  1  0  0  0  0
 16 18  1  0  0  0  0
 16 19  1  0  0  0  0
 19 20  1  0  0  0  0
 19 21  1  0  0  0  0
 19 22  1  0  0  0  0
  1 23  1  0  0  0  0
 23 24  1  0  0  0  0
 23 25  1  0  0  0  0
 23 26  1  0  0  0  0
M  END
> <VConfSearch Rank>
265

> <Conf_Id>
35

> <Delta U+W>
0.670

> <U+W>
22.512

> <U>
71.348

> <W>
-48.837

> <W(PB)>
-51.150

> <W(SA)>
2.313

> <Valence>
2.262

> <Coulomb>
68.807

> <VdW>
0.280

> <VdW6>
-5.915

> <VdW12>
6.195

> <Bond>
0.164

> <Angle>
0.622

> <Pdih>
1.475

> <Idih>
0.000

> <Tether>
0.000

$$$$
VeraChem MOL file


 26 25  0  0  0  0  0  0  0  0999 V2000     
   18.6654   21.2880   21.8691 N   0  3  0  0  0  0  0  0  0  0  0  0
   19.2572   21.2344   21.0254 H   0  0  0  0  0  0  0  0  0  0  0  0
   19.1594   21.9275   22.5108 H   0  0  0  0  0  0  0  0  0  0  0  0
   18.5286   19.9167   22.4998 C   0  0  0  0  0  0  0  0  0  0  0  0
   18.0095   19.2705   21.7874 H   0  0  0  0  0  0  0  0  0  0  0  0
   17.9041   20.0183   23.3909 H   0  0  0  0  0  0  0  0  0  0  0  0
   19.8792   19.2851   22.8832 C   0  0  0  0  0  0  0  0  0  0  0  0
   20.5092   19.2001   21.9878 H   0  0  0  0  0  0  0  0  0  0  0  0
   20.3986   19.9513   23.5834 H   0  0  0  0  0  0  0  0  0  0  0  0
   19.6867   17.8881   23.5194 C   0  0  0  0  0  0  0  0  0  0  0  0
   19.0938   17.2640   22.8362 H   0  0  0  0  0  0  0  0  0  0  0  0
   19.0975   17.9792   24.4425 H   0  0  0  0  0  0  0  0  0  0  0  0
   21.0173   17.1559   23.8230 C   0  0  0  0  0  0  0  0  0  0  0  0
   20.7841   16.1360   24.1591 H   0  0  0  0  0  0  0  0  0  0  0  0
   21.5987   17.0488   22.8968 H   0  0  0  0  0  0  0  0  0  0  0  0
   21.8782   17.8556   24.9016 C   0  0  0  0  0  0  0  0  0  0  0  0
   21.2808   18.0097   25.8111 H   0  0  0  0  0  0  0  0  0  0  0  0
   22.1898   18.8492   24.5530 H   0  0  0  0  0  0  0  0  0  0  0  0
   23.1357   17.0308   25.2497 C   0  0  0  0  0  0  0  0  0  0  0  0
   22.8641   16.0422   25.6422 H   0  0  0  0  0  0  0  0  0  0  0  0
   23.7359   17.5425   26.0132 H   0  0  0  0  0  0  0  0  0  0  0  0
   23.7695   16.8851   24.3652 H   0  0  0  0  0  0  0  0  0  0  0  0
   17.2890   21.8381   21.5217 C   0  0  0  0  0  0  0  0  0  0  0  0
   16.6931   21.9169   22.4337 H   0  0  0  0  0  0  0  0  0  0  0  0
   17.4018   22.8255   21.0684 H   0  0  0  0  0  0  0  0  0  0  0  0
   16.7995   21.1624   20.8169 H   0  0  0  0  0  0  0  0  0  0  0  0
  1  2  1  0  0  0  0
  1  3  1  0  0  0  0
  1  4  1  0  0  0  0
  4  5  1  0  0  0  0
  4  6  1  0  0  0  0
  4  7  1  0  0  0  0
  7  8  1  0  0  0  0
  7  9  1  0  0  0  0
  7 10  1  0  0  0  0
 10 11  1  0  0  0  0
 10 12  1  0  0  0  0
 10 13  1  0  0  0  0
 13 14  1  0  0  0  0
 13 15  1  0  0  0  0
 13 16  1  0  0  0  0
 16 17  1  0  0  0  0
 16 18  1  0  0  0  0
 16 19  1  0  0  0  0
 19 20  1  0  0  0  0
 19 21  1  0  0  0  0
 19 22  1  0  0  0  0
  1 23  1  0  0  0  0
 23 24  1  0  0  0  0
 23 25  1  0  0  0  0
 23 26  1  0  0  0  0
M  END
> <VConfSearch Rank>
266

> <Conf_Id>
36

> <Delta U+W>
0.662

> <U+W>
22.504

> <U>
71.348

> <W>
-48.844

> <W(PB)>
-51.157

> <W(SA)>
2.313

> <Valence>
2.262

> <Coulomb>
68.807

> <VdW>
0.280

> <VdW6>
-5.916

> <VdW12>
6.195

> <Bond>
0.164

> <Angle>
0.622

> <Pdih>
1.475

> <Idih>
0.000

> <Tether>
0.000

$$$$
VeraChem MOL file


 26 25  0  0  0  0  0  0  0  0999 V2000     
   18.6178   19.4066   20.6925 N   0  3  0  0  0  0  0  0  0  0  0  0
   18.0775   20.2416   20.9676 H   0  0  0  0  0  0  0  0  0  0  0  0
   17.9141   18.6837   20.4754 H   0  0  0  0  0  0  0  0  0  0  0  0
   19.4980   18.9520   21.8392 C   0  0  0  0  0  0  0  0  0  0  0  0
   20.2216   19.7461   22.0381 H   0  0  0  0  0  0  0  0  0  0  0  0
   20.0427   18.0629   21.5118 H   0  0  0  0  0  0  0  0  0  0  0  0
   18.7083   18.6324   23.1232 C   0  0  0  0  0  0  0  0  0  0  0  0
   18.1596   19.5253   23.4512 H   0  0  0  0  0  0  0  0  0  0  0  0
   17.9553   17.8650   22.8996 H   0  0  0  0  0  0  0  0  0  0  0  0
   19.6137   18.1276   24.2715 C   0  0  0  0  0  0  0  0  0  0  0  0
   20.1406   17.2184   23.9499 H   0  0  0  0  0  0  0  0  0  0  0  0
   18.9778   17.8344   25.1184 H   0  0  0  0  0  0  0  0  0  0  0  0
   20.6392   19.1849   24.7472 C   0  0  0  0  0  0  0  0  0  0  0  0
   21.3141   19.4513   23.9228 H   0  0  0  0  0  0  0  0  0  0  0  0
   20.1115   20.1043   25.0364 H   0  0  0  0  0  0  0  0  0  0  0  0
   21.4764   18.6759   25.9419 C   0  0  0  0  0  0  0  0  0  0  0  0
   22.0060   17.7555   25.6584 H   0  0  0  0  0  0  0  0  0  0  0  0
   20.8114   18.4141   26.7769 H   0  0  0  0  0  0  0  0  0  0  0  0
   22.4998   19.7305   26.4144 C   0  0  0  0  0  0  0  0  0  0  0  0
   23.2020   19.9875   25.6106 H   0  0  0  0  0  0  0  0  0  0  0  0
   23.0838   19.3510   27.2629 H   0  0  0  0  0  0  0  0  0  0  0  0
   21.9973   20.6518   26.7368 H   0  0  0  0  0  0  0  0  0  0  0  0
   19.4736   19.7034   19.4688 C   0  0  0  0  0  0  0  0  0  0  0  0
   20.0096   18.7975   19.1771 H   0  0  0  0  0  0  0  0  0  0  0  0
   18.8276   20.0294   18.6505 H   0  0  0  0  0  0  0  0  0  0  0  0
   20.1872   20.4935   19.7126 H   0  0  0  0  0  0  0  0  0  0  0  0
  1  2  1  0  0  0  0
  1  3  1  0  0  0  0
  1  4  1  0  0  0  0
  4  5  1  0  0  0  0
  4  6  1  0  0  0  0
  4  7  1  0  0  0  0
  7  8  1  0  0  0  0
  7  9  1  0  0  0  0
  7 10  1  0  0  0  0
 10 11  1  0  0  0  0
 10 12  1  0  0  0  0
 10 13  1  0  0  0  0
 13 14  1  0  0  0  0
 13 15  1  0  0  0  0
 13 16  1  0  0  0  0
 16 17  1  0  0  0  0
 16 18  1  0  0  0  0
 16 19  1  0  0  0  0
 19 20  1  0  0  0  0
 19 21  1  0  0  0  0
 19 22  1  0  0  0  0
  1 23  1  0  0  0  0
 23 24  1  0  0  0  0
 23 25  1  0  0  0  0
 23 26  1  0  0  0  0
M  END
> <VConfSearch Rank>
267

> <Conf_Id>
46

> <Delta U+W>
0.496

> <U+W>
22.338

> <U>
71.138

> <W>
-48.799

> <W(PB)>
-51.136

> <W(SA)>
2.337

> <Valence>
2.016

> <Coulomb>
68.932

> <VdW>
0.190

> <VdW6>
-5.902

> <VdW12>
6.092

> <Bond>
0.149

> <Angle>
0.477

> <Pdih>
1.390

> <Idih>
0.000

> <Tether>
0.000

$$$$
VeraChem MOL file


 26 25  0  0  0  0  0  0  0  0999 V2000     
   17.2684   20.3273   23.8559 N   0  3  0  0  0  0  0  0  0  0  0  0
   16.7608   20.7337   23.0546 H   0  0  0  0  0  0  0  0  0  0  0  0
   17.6214   21.1336   24.3945 H   0  0  0  0  0  0  0  0  0  0  0  0
   18.4245   19.4785   23.3667 C   0  0  0  0  0  0  0  0  0  0  0  0
   18.0099   18.6450   22.7942 H   0  0  0  0  0  0  0  0  0  0  0  0
   18.9349   19.0743   24.2440 H   0  0  0  0  0  0  0  0  0  0  0  0
   19.4263   20.2590   22.4940 C   0  0  0  0  0  0  0  0  0  0  0  0
   18.8929   20.6968   21.6397 H   0  0  0  0  0  0  0  0  0  0  0  0
   19.8416   21.0976   23.0687 H   0  0  0  0  0  0  0  0  0  0  0  0
   20.5771   19.3706   21.9654 C   0  0  0  0  0  0  0  0  0  0  0  0
   21.1970   19.9672   21.2818 H   0  0  0  0  0  0  0  0  0  0  0  0
   20.1600   18.5480   21.3678 H   0  0  0  0  0  0  0  0  0  0  0  0
   21.4698   18.7972   23.0924 C   0  0  0  0  0  0  0  0  0  0  0  0
   21.8582   19.6203   23.7080 H   0  0  0  0  0  0  0  0  0  0  0  0
   20.8725   18.1579   23.7562 H   0  0  0  0  0  0  0  0  0  0  0  0
   22.6509   17.9765   22.5278 C   0  0  0  0  0  0  0  0  0  0  0  0
   23.2612   18.6092   21.8681 H   0  0  0  0  0  0  0  0  0  0  0  0
   22.2680   17.1519   21.9102 H   0  0  0  0  0  0  0  0  0  0  0  0
   23.5395   17.4038   23.6527 C   0  0  0  0  0  0  0  0  0  0  0  0
   23.9648   18.2074   24.2678 H   0  0  0  0  0  0  0  0  0  0  0  0
   24.3722   16.8251   23.2322 H   0  0  0  0  0  0  0  0  0  0  0  0
   22.9649   16.7380   24.3097 H   0  0  0  0  0  0  0  0  0  0  0  0
   16.3314   19.4838   24.7094 C   0  0  0  0  0  0  0  0  0  0  0  0
   15.5034   20.1068   25.0550 H   0  0  0  0  0  0  0  0  0  0  0  0
   15.9453   18.6571   24.1091 H   0  0  0  0  0  0  0  0  0  0  0  0
   16.8819   19.0926   25.5678 H   0  0  0  0  0  0  0  0  0  0  0  0
  1  2  1  0  0  0  0
  1  3  1  0  0  0  0
  1  4  1  0  0  0  0
  4  5  1  0  0  0  0
  4  6  1  0  0  0  0
  4  7  1  0  0  0  0
  7  8  1  0  0  0  0
  7  9  1  0  0  0  0
  7 10  1  0  0  0  0
 10 11  1  0  0  0  0
 10 12  1  0  0  0  0
 10 13  1  0  0  0  0
 13 14  1  0  0  0  0
 13 15  1  0  0  0  0
 13 16  1  0  0  0  0
 16 17  1  0  0  0  0
 16 18  1  0  0  0  0
 16 19  1  0  0  0  0
 19 20  1  0  0  0  0
 19 21  1  0  0  0  0
 19 22  1  0  0  0  0
  1 23  1  0  0  0  0
 23 24  1  0  0  0  0
 23 25  1  0  0  0  0
 23 26  1  0  0  0  0
M  END
> <VConfSearch Rank>
268

> <Conf_Id>
45

> <Delta U+W>
0.471

> <U+W>
22.313

> <U>
71.138

> <W>
-48.825

> <W(PB)>
-51.169

> <W(SA)>
2.344

> <Valence>
2.016

> <Coulomb>
68.932

> <VdW>
0.190

> <VdW6>
-5.902

> <VdW12>
6.092

> <Bond>
0.149

> <Angle>
0.477

> <Pdih>
1.390

> <Idih>
0.000

> <Tether>
0.000

$$$$
VeraChem MOL file


 26 25  0  0  0  0  0  0  0  0999 V2000     
   18.7561   17.8264   25.1306 N   0  3  0  0  0  0  0  0  0  0  0  0
   18.6552   18.8384   25.3006 H   0  0  0  0  0  0  0  0  0  0  0  0
   19.6767   17.5708   25.5203 H   0  0  0  0  0  0  0  0  0  0  0  0
   18.7229   17.5429   23.6412 C   0  0  0  0  0  0  0  0  0  0  0  0
   17.7392   17.8341   23.2643 H   0  0  0  0  0  0  0  0  0  0  0  0
   18.8335   16.4637   23.5082 H   0  0  0  0  0  0  0  0  0  0  0  0
   19.8211   18.2717   22.8422 C   0  0  0  0  0  0  0  0  0  0  0  0
   20.8038   17.9713   23.2270 H   0  0  0  0  0  0  0  0  0  0  0  0
   19.7741   17.9324   21.7989 H   0  0  0  0  0  0  0  0  0  0  0  0
   19.6672   19.8127   22.8885 C   0  0  0  0  0  0  0  0  0  0  0  0
   19.8022   20.1752   23.9163 H   0  0  0  0  0  0  0  0  0  0  0  0
   18.6406   20.0774   22.5991 H   0  0  0  0  0  0  0  0  0  0  0  0
   20.6487   20.5590   21.9514 C   0  0  0  0  0  0  0  0  0  0  0  0
   20.5020   20.2183   20.9171 H   0  0  0  0  0  0  0  0  0  0  0  0
   20.3952   21.6281   21.9617 H   0  0  0  0  0  0  0  0  0  0  0  0
   22.1341   20.3906   22.3505 C   0  0  0  0  0  0  0  0  0  0  0  0
   22.4305   19.3361   22.2735 H   0  0  0  0  0  0  0  0  0  0  0  0
   22.2722   20.6848   23.4003 H   0  0  0  0  0  0  0  0  0  0  0  0
   23.0636   21.2382   21.4558 C   0  0  0  0  0  0  0  0  0  0  0  0
   22.9702   20.9466   20.4015 H   0  0  0  0  0  0  0  0  0  0  0  0
   24.1126   21.1050   21.7503 H   0  0  0  0  0  0  0  0  0  0  0  0
   22.8245   22.3066   21.5373 H   0  0  0  0  0  0  0  0  0  0  0  0
   17.6461   17.0545   25.8302 C   0  0  0  0  0  0  0  0  0  0  0  0
   17.7916   15.9851   25.6625 H   0  0  0  0  0  0  0  0  0  0  0  0
   17.6810   17.2680   26.9009 H   0  0  0  0  0  0  0  0  0  0  0  0
   16.6812   17.3650   25.4234 H   0  0  0  0  0  0  0  0  0  0  0  0
  1  2  1  0  0  0  0
  1  3  1  0  0  0  0
  1  4  1  0  0  0  0
  4  5  1  0  0  0  0
  4  6  1  0  0  0  0
  4  7  1  0  0  0  0
  7  8  1  0  0  0  0
  7  9  1  0  0  0  0
  7 10  1  0  0  0  0
 10 11  1  0  0  0  0
 10 12  1  0  0  0  0
 10 13  1  0  0  0  0
 13 14  1  0  0  0  0
 13 15  1  0  0  0  0
 13 16  1  0  0  0  0
 16 17  1  0  0  0  0
 16 18  1  0  0  0  0
 16 19  1  0  0  0  0
 19 20  1  0  0  0  0
 19 21  1  0  0  0  0
 19 22  1  0  0  0  0
  1 23  1  0  0  0  0
 23 24  1  0  0  0  0
 23 25  1  0  0  0  0
 23 26  1  0  0  0  0
M  END
> <VConfSearch Rank>
269

> <Conf_Id>
143

> <Delta U+W>
0.915

> <U+W>
22.757

> <U>
71.994

> <W>
-49.237

> <W(PB)>
-51.537

> <W(SA)>
2.300

> <Valence>
2.376

> <Coulomb>
69.315

> <VdW>
0.303

> <VdW6>
-6.508

> <VdW12>
6.810

> <Bond>
0.182

> <Angle>
0.660

> <Pdih>
1.534

> <Idih>
0.000

> <Tether>
0.000

$$$$
VeraChem MOL file


 26 25  0  0  0  0  0  0  0  0999 V2000     
   18.5377   17.2773   22.0940 N   0  3  0  0  0  0  0  0  0  0  0  0
   19.4702   16.8601   21.9548 H   0  0  0  0  0  0  0  0  0  0  0  0
   18.3857   17.8923   21.2796 H   0  0  0  0  0  0  0  0  0  0  0  0
   18.5156   18.0912   23.3736 C   0  0  0  0  0  0  0  0  0  0  0  0
   18.6894   17.4103   24.2107 H   0  0  0  0  0  0  0  0  0  0  0  0
   17.5118   18.5107   23.4780 H   0  0  0  0  0  0  0  0  0  0  0  0
   19.5510   19.2328   23.4096 C   0  0  0  0  0  0  0  0  0  0  0  0
   19.3937   19.8989   22.5510 H   0  0  0  0  0  0  0  0  0  0  0  0
   19.3638   19.8257   24.3132 H   0  0  0  0  0  0  0  0  0  0  0  0
   21.0107   18.7169   23.4260 C   0  0  0  0  0  0  0  0  0  0  0  0
   21.1686   18.0378   22.5780 H   0  0  0  0  0  0  0  0  0  0  0  0
   21.1742   18.1169   24.3320 H   0  0  0  0  0  0  0  0  0  0  0  0
   22.0844   19.8333   23.3479 C   0  0  0  0  0  0  0  0  0  0  0  0
   23.0679   19.3439   23.3231 H   0  0  0  0  0  0  0  0  0  0  0  0
   21.9998   20.3728   22.3945 H   0  0  0  0  0  0  0  0  0  0  0  0
   22.0742   20.8336   24.5329 C   0  0  0  0  0  0  0  0  0  0  0  0
   23.1112   21.1193   24.7585 H   0  0  0  0  0  0  0  0  0  0  0  0
   21.6915   20.3471   25.4409 H   0  0  0  0  0  0  0  0  0  0  0  0
   21.2780   22.1266   24.2384 C   0  0  0  0  0  0  0  0  0  0  0  0
   20.2233   21.9230   24.0234 H   0  0  0  0  0  0  0  0  0  0  0  0
   21.7010   22.6592   23.3768 H   0  0  0  0  0  0  0  0  0  0  0  0
   21.3163   22.8056   25.1000 H   0  0  0  0  0  0  0  0  0  0  0  0
   17.4713   16.1924   22.1514 C   0  0  0  0  0  0  0  0  0  0  0  0
   16.4904   16.6588   22.2668 H   0  0  0  0  0  0  0  0  0  0  0  0
   17.4981   15.6142   21.2251 H   0  0  0  0  0  0  0  0  0  0  0  0
   17.6715   15.5366   23.0016 H   0  0  0  0  0  0  0  0  0  0  0  0
  1  2  1  0  0  0  0
  1  3  1  0  0  0  0
  1  4  1  0  0  0  0
  4  5  1  0  0  0  0
  4  6  1  0  0  0  0
  4  7  1  0  0  0  0
  7  8  1  0  0  0  0
  7  9  1  0  0  0  0
  7 10  1  0  0  0  0
 10 11  1  0  0  0  0
 10 12  1  0  0  0  0
 10 13  1  0  0  0  0
 13 14  1  0  0  0  0
 13 15  1  0  0  0  0
 13 16  1  0  0  0  0
 16 17  1  0  0  0  0
 16 18  1  0  0  0  0
 16 19  1  0  0  0  0
 19 20  1  0  0  0  0
 19 21  1  0  0  0  0
 19 22  1  0  0  0  0
  1 23  1  0  0  0  0
 23 24  1  0  0  0  0
 23 25  1  0  0  0  0
 23 26  1  0  0  0  0
M  END
> <VConfSearch Rank>
270

> <Conf_Id>
76

> <Delta U+W>
3.468

> <U+W>
25.310

> <U>
74.594

> <W>
-49.283

> <W(PB)>
-51.537

> <W(SA)>
2.253

> <Valence>
4.886

> <Coulomb>
69.332

> <VdW>
0.376

> <VdW6>
-7.329

> <VdW12>
7.705

> <Bond>
0.232

> <Angle>
1.251

> <Pdih>
3.403

> <Idih>
0.000

> <Tether>
0.000

$$$$
VeraChem MOL file


 26 25  0  0  0  0  0  0  0  0999 V2000     
   18.4825   20.1874   25.2660 N   0  3  0  0  0  0  0  0  0  0  0  0
   19.1013   21.0079   25.1733 H   0  0  0  0  0  0  0  0  0  0  0  0
   18.7971   19.7011   26.1201 H   0  0  0  0  0  0  0  0  0  0  0  0
   18.6332   19.2796   24.0618 C   0  0  0  0  0  0  0  0  0  0  0  0
   18.2976   19.8327   23.1810 H   0  0  0  0  0  0  0  0  0  0  0  0
   17.9702   18.4223   24.2033 H   0  0  0  0  0  0  0  0  0  0  0  0
   20.0761   18.7885   23.8459 C   0  0  0  0  0  0  0  0  0  0  0  0
   20.7376   19.6543   23.7306 H   0  0  0  0  0  0  0  0  0  0  0  0
   20.4128   18.2484   24.7408 H   0  0  0  0  0  0  0  0  0  0  0  0
   20.1754   17.8580   22.6131 C   0  0  0  0  0  0  0  0  0  0  0  0
   19.7869   18.3643   21.7185 H   0  0  0  0  0  0  0  0  0  0  0  0
   19.5163   16.9953   22.7832 H   0  0  0  0  0  0  0  0  0  0  0  0
   21.6110   17.3337   22.3471 C   0  0  0  0  0  0  0  0  0  0  0  0
   22.1688   17.2524   23.2902 H   0  0  0  0  0  0  0  0  0  0  0  0
   21.5340   16.3079   21.9605 H   0  0  0  0  0  0  0  0  0  0  0  0
   22.4236   18.1593   21.3168 C   0  0  0  0  0  0  0  0  0  0  0  0
   21.9087   18.1465   20.3459 H   0  0  0  0  0  0  0  0  0  0  0  0
   23.3892   17.6600   21.1546 H   0  0  0  0  0  0  0  0  0  0  0  0
   22.6876   19.6218   21.7370 C   0  0  0  0  0  0  0  0  0  0  0  0
   23.1418   19.6720   22.7350 H   0  0  0  0  0  0  0  0  0  0  0  0
   21.7608   20.2083   21.7434 H   0  0  0  0  0  0  0  0  0  0  0  0
   23.3751   20.1052   21.0309 H   0  0  0  0  0  0  0  0  0  0  0  0
   17.0314   20.6263   25.4054 C   0  0  0  0  0  0  0  0  0  0  0  0
   16.7315   21.1666   24.5049 H   0  0  0  0  0  0  0  0  0  0  0  0
   16.4004   19.7443   25.5354 H   0  0  0  0  0  0  0  0  0  0  0  0
   16.9367   21.2791   26.2761 H   0  0  0  0  0  0  0  0  0  0  0  0
  1  2  1  0  0  0  0
  1  3  1  0  0  0  0
  1  4  1  0  0  0  0
  4  5  1  0  0  0  0
  4  6  1  0  0  0  0
  4  7  1  0  0  0  0
  7  8  1  0  0  0  0
  7  9  1  0  0  0  0
  7 10  1  0  0  0  0
 10 11  1  0  0  0  0
 10 12  1  0  0  0  0
 10 13  1  0  0  0  0
 13 14  1  0  0  0  0
 13 15  1  0  0  0  0
 13 16  1  0  0  0  0
 16 17  1  0  0  0  0
 16 18  1  0  0  0  0
 16 19  1  0  0  0  0
 19 20  1  0  0  0  0
 19 21  1  0  0  0  0
 19 22  1  0  0  0  0
  1 23  1  0  0  0  0
 23 24  1  0  0  0  0
 23 25  1  0  0  0  0
 23 26  1  0  0  0  0
M  END
> <VConfSearch Rank>
271

> <Conf_Id>
123

> <Delta U+W>
3.101

> <U+W>
24.943

> <U>
74.070

> <W>
-49.127

> <W(PB)>
-51.421

> <W(SA)>
2.295

> <Valence>
4.690

> <Coulomb>
69.115

> <VdW>
0.266

> <VdW6>
-6.809

> <VdW12>
7.075

> <Bond>
0.212

> <Angle>
1.133

> <Pdih>
3.345

> <Idih>
0.000

> <Tether>
0.000

$$$$
VeraChem MOL file


 26 25  0  0  0  0  0  0  0  0999 V2000     
   22.6406   19.2953   23.9749 N   0  3  0  0  0  0  0  0  0  0  0  0
   22.9750   20.0671   23.3773 H   0  0  0  0  0  0  0  0  0  0  0  0
   22.6026   18.4673   23.3617 H   0  0  0  0  0  0  0  0  0  0  0  0
   21.2570   19.6113   24.5095 C   0  0  0  0  0  0  0  0  0  0  0  0
   21.3453   20.4913   25.1518 H   0  0  0  0  0  0  0  0  0  0  0  0
   20.9335   18.7695   25.1269 H   0  0  0  0  0  0  0  0  0  0  0  0
   20.2083   19.8829   23.4129 C   0  0  0  0  0  0  0  0  0  0  0  0
   19.2813   20.2071   23.8990 H   0  0  0  0  0  0  0  0  0  0  0  0
   20.5402   20.7254   22.7918 H   0  0  0  0  0  0  0  0  0  0  0  0
   19.9418   18.6432   22.5212 C   0  0  0  0  0  0  0  0  0  0  0  0
   19.7027   17.7691   23.1427 H   0  0  0  0  0  0  0  0  0  0  0  0
   20.8672   18.3923   21.9859 H   0  0  0  0  0  0  0  0  0  0  0  0
   18.8229   18.8700   21.4709 C   0  0  0  0  0  0  0  0  0  0  0  0
   18.7788   19.9294   21.1826 H   0  0  0  0  0  0  0  0  0  0  0  0
   19.0968   18.3264   20.5561 H   0  0  0  0  0  0  0  0  0  0  0  0
   17.4183   18.3760   21.9029 C   0  0  0  0  0  0  0  0  0  0  0  0
   17.4501   17.2935   22.0899 H   0  0  0  0  0  0  0  0  0  0  0  0
   16.7250   18.5184   21.0621 H   0  0  0  0  0  0  0  0  0  0  0  0
   16.8443   19.0933   23.1444 C   0  0  0  0  0  0  0  0  0  0  0  0
   16.8527   20.1829   23.0120 H   0  0  0  0  0  0  0  0  0  0  0  0
   17.4150   18.8456   24.0478 H   0  0  0  0  0  0  0  0  0  0  0  0
   15.8054   18.7848   23.3191 H   0  0  0  0  0  0  0  0  0  0  0  0
   23.6018   19.0591   25.1316 C   0  0  0  0  0  0  0  0  0  0  0  0
   23.2437   18.2186   25.7302 H   0  0  0  0  0  0  0  0  0  0  0  0
   24.5931   18.8324   24.7330 H   0  0  0  0  0  0  0  0  0  0  0  0
   23.6493   19.9592   25.7484 H   0  0  0  0  0  0  0  0  0  0  0  0
  1  2  1  0  0  0  0
  1  3  1  0  0  0  0
  1  4  1  0  0  0  0
  4  5  1  0  0  0  0
  4  6  1  0  0  0  0
  4  7  1  0  0  0  0
  7  8  1  0  0  0  0
  7  9  1  0  0  0  0
  7 10  1  0  0  0  0
 10 11  1  0  0  0  0
 10 12  1  0  0  0  0
 10 13  1  0  0  0  0
 13 14  1  0  0  0  0
 13 15  1  0  0  0  0
 13 16  1  0  0  0  0
 16 17  1  0  0  0  0
 16 18  1  0  0  0  0
 16 19  1  0  0  0  0
 19 20  1  0  0  0  0
 19 21  1  0  0  0  0
 19 22  1  0  0  0  0
  1 23  1  0  0  0  0
 23 24  1  0  0  0  0
 23 25  1  0  0  0  0
 23 26  1  0  0  0  0
M  END
> <VConfSearch Rank>
272

> <Conf_Id>
111

> <Delta U+W>
3.383

> <U+W>
25.225

> <U>
74.516

> <W>
-49.292

> <W(PB)>
-51.558

> <W(SA)>
2.266

> <Valence>
4.842

> <Coulomb>
69.333

> <VdW>
0.342

> <VdW6>
-7.369

> <VdW12>
7.711

> <Bond>
0.232

> <Angle>
1.153

> <Pdih>
3.457

> <Idih>
0.000

> <Tether>
0.000

$$$$
VeraChem MOL file


 26 25  0  0  0  0  0  0  0  0999 V2000     
   19.6385   17.3247   24.8226 N   0  3  0  0  0  0  0  0  0  0  0  0
   18.6904   17.2955   25.2286 H   0  0  0  0  0  0  0  0  0  0  0  0
   20.0274   18.2407   25.0926 H   0  0  0  0  0  0  0  0  0  0  0  0
   19.5622   17.2199   23.3120 C   0  0  0  0  0  0  0  0  0  0  0  0
   19.1358   16.2433   23.0690 H   0  0  0  0  0  0  0  0  0  0  0  0
   20.5816   17.2510   22.9204 H   0  0  0  0  0  0  0  0  0  0  0  0
   18.7148   18.3270   22.6513 C   0  0  0  0  0  0  0  0  0  0  0  0
   18.6783   18.1433   21.5693 H   0  0  0  0  0  0  0  0  0  0  0  0
   17.6797   18.2476   23.0093 H   0  0  0  0  0  0  0  0  0  0  0  0
   19.2358   19.7640   22.9076 C   0  0  0  0  0  0  0  0  0  0  0  0
   19.1948   19.9915   23.9810 H   0  0  0  0  0  0  0  0  0  0  0  0
   18.5472   20.4667   22.4207 H   0  0  0  0  0  0  0  0  0  0  0  0
   20.6737   19.9959   22.3769 C   0  0  0  0  0  0  0  0  0  0  0  0
   21.3597   19.2781   22.8456 H   0  0  0  0  0  0  0  0  0  0  0  0
   20.7068   19.7949   21.2973 H   0  0  0  0  0  0  0  0  0  0  0  0
   21.2099   21.4218   22.6528 C   0  0  0  0  0  0  0  0  0  0  0  0
   22.2661   21.4645   22.3519 H   0  0  0  0  0  0  0  0  0  0  0  0
   21.1905   21.6244   23.7328 H   0  0  0  0  0  0  0  0  0  0  0  0
   20.4352   22.5287   21.9017 C   0  0  0  0  0  0  0  0  0  0  0  0
   19.4015   22.6124   22.2591 H   0  0  0  0  0  0  0  0  0  0  0  0
   20.4117   22.3316   20.8221 H   0  0  0  0  0  0  0  0  0  0  0  0
   20.9154   23.5040   22.0539 H   0  0  0  0  0  0  0  0  0  0  0  0
   20.4946   16.1955   25.3785 C   0  0  0  0  0  0  0  0  0  0  0  0
   20.5418   16.2838   26.4662 H   0  0  0  0  0  0  0  0  0  0  0  0
   20.0467   15.2376   25.1053 H   0  0  0  0  0  0  0  0  0  0  0  0
   21.5003   16.2670   24.9585 H   0  0  0  0  0  0  0  0  0  0  0  0
  1  2  1  0  0  0  0
  1  3  1  0  0  0  0
  1  4  1  0  0  0  0
  4  5  1  0  0  0  0
  4  6  1  0  0  0  0
  4  7  1  0  0  0  0
  7  8  1  0  0  0  0
  7  9  1  0  0  0  0
  7 10  1  0  0  0  0
 10 11  1  0  0  0  0
 10 12  1  0  0  0  0
 10 13  1  0  0  0  0
 13 14  1  0  0  0  0
 13 15  1  0  0  0  0
 13 16  1  0  0  0  0
 16 17  1  0  0  0  0
 16 18  1  0  0  0  0
 16 19  1  0  0  0  0
 19 20  1  0  0  0  0
 19 21  1  0  0  0  0
 19 22  1  0  0  0  0
  1 23  1  0  0  0  0
 23 24  1  0  0  0  0
 23 25  1  0  0  0  0
 23 26  1  0  0  0  0
M  END
> <VConfSearch Rank>
273

> <Conf_Id>
126

> <Delta U+W>
1.519

> <U+W>
23.361

> <U>
72.579

> <W>
-49.218

> <W(PB)>
-51.496

> <W(SA)>
2.279

> <Valence>
2.678

> <Coulomb>
69.622

> <VdW>
0.279

> <VdW6>
-7.328

> <VdW12>
7.608

> <Bond>
0.212

> <Angle>
0.911

> <Pdih>
1.555

> <Idih>
0.000

> <Tether>
0.000

$$$$
VeraChem MOL file


 26 25  0  0  0  0  0  0  0  0999 V2000     
   18.4501   19.1770   25.0551 N   0  3  0  0  0  0  0  0  0  0  0  0
   18.2163   19.3334   24.0631 H   0  0  0  0  0  0  0  0  0  0  0  0
   18.3355   20.0936   25.5148 H   0  0  0  0  0  0  0  0  0  0  0  0
   19.8859   18.7067   25.1804 C   0  0  0  0  0  0  0  0  0  0  0  0
   19.9665   17.7355   24.6866 H   0  0  0  0  0  0  0  0  0  0  0  0
   20.0961   18.5644   26.2435 H   0  0  0  0  0  0  0  0  0  0  0  0
   20.9178   19.6847   24.5812 C   0  0  0  0  0  0  0  0  0  0  0  0
   20.8665   20.6372   25.1251 H   0  0  0  0  0  0  0  0  0  0  0  0
   21.9252   19.2855   24.7593 H   0  0  0  0  0  0  0  0  0  0  0  0
   20.7351   19.9508   23.0653 C   0  0  0  0  0  0  0  0  0  0  0  0
   21.4974   20.6766   22.7538 H   0  0  0  0  0  0  0  0  0  0  0  0
   19.7645   20.4313   22.8837 H   0  0  0  0  0  0  0  0  0  0  0  0
   20.8558   18.6694   22.2015 C   0  0  0  0  0  0  0  0  0  0  0  0
   21.8385   18.2052   22.3630 H   0  0  0  0  0  0  0  0  0  0  0  0
   20.1094   17.9333   22.5278 H   0  0  0  0  0  0  0  0  0  0  0  0
   20.6482   18.9243   20.6886 C   0  0  0  0  0  0  0  0  0  0  0  0
   19.6615   19.3776   20.5194 H   0  0  0  0  0  0  0  0  0  0  0  0
   20.6344   17.9567   20.1677 H   0  0  0  0  0  0  0  0  0  0  0  0
   21.7441   19.8124   20.0561 C   0  0  0  0  0  0  0  0  0  0  0  0
   22.7437   19.3977   20.2401 H   0  0  0  0  0  0  0  0  0  0  0  0
   21.7164   20.8341   20.4544 H   0  0  0  0  0  0  0  0  0  0  0  0
   21.6040   19.8793   18.9695 H   0  0  0  0  0  0  0  0  0  0  0  0
   17.5115   18.1482   25.6698 C   0  0  0  0  0  0  0  0  0  0  0  0
   17.6288   17.1969   25.1462 H   0  0  0  0  0  0  0  0  0  0  0  0
   17.7592   18.0223   26.7261 H   0  0  0  0  0  0  0  0  0  0  0  0
   16.4817   18.4989   25.5717 H   0  0  0  0  0  0  0  0  0  0  0  0
  1  2  1  0  0  0  0
  1  3  1  0  0  0  0
  1  4  1  0  0  0  0
  4  5  1  0  0  0  0
  4  6  1  0  0  0  0
  4  7  1  0  0  0  0
  7  8  1  0  0  0  0
  7  9  1  0  0  0  0
  7 10  1  0  0  0  0
 10 11  1  0  0  0  0
 10 12  1  0  0  0  0
 10 13  1  0  0  0  0
 13 14  1  0  0  0  0
 13 15  1  0  0  0  0
 13 16  1  0  0  0  0
 16 17  1  0  0  0  0
 16 18  1  0  0  0  0
 16 19  1  0  0  0  0
 19 20  1  0  0  0  0
 19 21  1  0  0  0  0
 19 22  1  0  0  0  0
  1 23  1  0  0  0  0
 23 24  1  0  0  0  0
 23 25  1  0  0  0  0
 23 26  1  0  0  0  0
M  END
> <VConfSearch Rank>
274

> <Conf_Id>
134

> <Delta U+W>
1.464

> <U+W>
23.306

> <U>
72.579

> <W>
-49.273

> <W(PB)>
-51.540

> <W(SA)>
2.267

> <Valence>
2.677

> <Coulomb>
69.622

> <VdW>
0.280

> <VdW6>
-7.328

> <VdW12>
7.608

> <Bond>
0.212

> <Angle>
0.911

> <Pdih>
1.555

> <Idih>
0.000

> <Tether>
0.000

$$$$
VeraChem MOL file


 26 25  0  0  0  0  0  0  0  0999 V2000     
   21.4014   16.8492   22.2333 N   0  3  0  0  0  0  0  0  0  0  0  0
   20.9305   16.3153   22.9803 H   0  0  0  0  0  0  0  0  0  0  0  0
   22.3674   16.9935   22.5660 H   0  0  0  0  0  0  0  0  0  0  0  0
   20.7132   18.1842   22.0309 C   0  0  0  0  0  0  0  0  0  0  0  0
   19.6944   17.9877   21.6876 H   0  0  0  0  0  0  0  0  0  0  0  0
   21.2457   18.7194   21.2406 H   0  0  0  0  0  0  0  0  0  0  0  0
   20.6727   19.0477   23.3047 C   0  0  0  0  0  0  0  0  0  0  0  0
   20.1523   18.4933   24.0958 H   0  0  0  0  0  0  0  0  0  0  0  0
   21.6972   19.2297   23.6554 H   0  0  0  0  0  0  0  0  0  0  0  0
   19.9629   20.3977   23.0475 C   0  0  0  0  0  0  0  0  0  0  0  0
   18.9257   20.2183   22.7342 H   0  0  0  0  0  0  0  0  0  0  0  0
   20.4502   20.9012   22.2010 H   0  0  0  0  0  0  0  0  0  0  0  0
   19.9899   21.3559   24.2666 C   0  0  0  0  0  0  0  0  0  0  0  0
   21.0332   21.6141   24.4950 H   0  0  0  0  0  0  0  0  0  0  0  0
   19.5028   22.2993   23.9839 H   0  0  0  0  0  0  0  0  0  0  0  0
   19.3174   20.8112   25.5528 C   0  0  0  0  0  0  0  0  0  0  0  0
   19.4003   21.5736   26.3400 H   0  0  0  0  0  0  0  0  0  0  0  0
   19.8645   19.9352   25.9260 H   0  0  0  0  0  0  0  0  0  0  0  0
   17.8259   20.4531   25.3629 C   0  0  0  0  0  0  0  0  0  0  0  0
   17.2611   21.3093   24.9718 H   0  0  0  0  0  0  0  0  0  0  0  0
   17.3751   20.1629   26.3207 H   0  0  0  0  0  0  0  0  0  0  0  0
   17.6990   19.6118   24.6703 H   0  0  0  0  0  0  0  0  0  0  0  0
   21.3974   16.0616   20.9304 C   0  0  0  0  0  0  0  0  0  0  0  0
   21.9293   16.6310   20.1650 H   0  0  0  0  0  0  0  0  0  0  0  0
   21.8959   15.1028   21.0899 H   0  0  0  0  0  0  0  0  0  0  0  0
   20.3652   15.8928   20.6159 H   0  0  0  0  0  0  0  0  0  0  0  0
  1  2  1  0  0  0  0
  1  3  1  0  0  0  0
  1  4  1  0  0  0  0
  4  5  1  0  0  0  0
  4  6  1  0  0  0  0
  4  7  1  0  0  0  0
  7  8  1  0  0  0  0
  7  9  1  0  0  0  0
  7 10  1  0  0  0  0
 10 11  1  0  0  0  0
 10 12  1  0  0  0  0
 10 13  1  0  0  0  0
 13 14  1  0  0  0  0
 13 15  1  0  0  0  0
 13 16  1  0  0  0  0
 16 17  1  0  0  0  0
 16 18  1  0  0  0  0
 16 19  1  0  0  0  0
 19 20  1  0  0  0  0
 19 21  1  0  0  0  0
 19 22  1  0  0  0  0
  1 23  1  0  0  0  0
 23 24  1  0  0  0  0
 23 25  1  0  0  0  0
 23 26  1  0  0  0  0
M  END
> <VConfSearch Rank>
275

> <Conf_Id>
30

> <Delta U+W>
0.910

> <U+W>
22.752

> <U>
71.870

> <W>
-49.118

> <W(PB)>
-51.409

> <W(SA)>
2.290

> <Valence>
2.682

> <Coulomb>
68.933

> <VdW>
0.255

> <VdW6>
-6.833

> <VdW12>
7.088

> <Bond>
0.205

> <Angle>
1.003

> <Pdih>
1.473

> <Idih>
0.000

> <Tether>
0.000

$$$$
VeraChem MOL file


 26 25  0  0  0  0  0  0  0  0999 V2000     
   21.8047   19.2867   21.2099 N   0  3  0  0  0  0  0  0  0  0  0  0
   22.1312   18.3112   21.1289 H   0  0  0  0  0  0  0  0  0  0  0  0
   22.4288   19.7287   21.9027 H   0  0  0  0  0  0  0  0  0  0  0  0
   20.3714   19.3191   21.7013 C   0  0  0  0  0  0  0  0  0  0  0  0
   19.7470   18.8358   20.9456 H   0  0  0  0  0  0  0  0  0  0  0  0
   20.0677   20.3660   21.7807 H   0  0  0  0  0  0  0  0  0  0  0  0
   20.1770   18.6192   23.0585 C   0  0  0  0  0  0  0  0  0  0  0  0
   20.4980   17.5721   22.9790 H   0  0  0  0  0  0  0  0  0  0  0  0
   20.8218   19.1008   23.8045 H   0  0  0  0  0  0  0  0  0  0  0  0
   18.7006   18.6779   23.5160 C   0  0  0  0  0  0  0  0  0  0  0  0
   18.0645   18.2624   22.7220 H   0  0  0  0  0  0  0  0  0  0  0  0
   18.3895   19.7245   23.6339 H   0  0  0  0  0  0  0  0  0  0  0  0
   18.4240   17.8924   24.8242 C   0  0  0  0  0  0  0  0  0  0  0  0
   17.3507   17.9534   25.0514 H   0  0  0  0  0  0  0  0  0  0  0  0
   18.6339   16.8276   24.6528 H   0  0  0  0  0  0  0  0  0  0  0  0
   19.2256   18.3659   26.0638 C   0  0  0  0  0  0  0  0  0  0  0  0
   20.2999   18.1989   25.9082 H   0  0  0  0  0  0  0  0  0  0  0  0
   18.9462   17.7378   26.9212 H   0  0  0  0  0  0  0  0  0  0  0  0
   18.9751   19.8465   26.4297 C   0  0  0  0  0  0  0  0  0  0  0  0
   19.3480   20.5224   25.6502 H   0  0  0  0  0  0  0  0  0  0  0  0
   19.4904   20.1042   27.3640 H   0  0  0  0  0  0  0  0  0  0  0  0
   17.9044   20.0422   26.5719 H   0  0  0  0  0  0  0  0  0  0  0  0
   21.9083   19.9977   19.8677 C   0  0  0  0  0  0  0  0  0  0  0  0
   22.9451   19.9671   19.5252 H   0  0  0  0  0  0  0  0  0  0  0  0
   21.2655   19.4928   19.1433 H   0  0  0  0  0  0  0  0  0  0  0  0
   21.5893   21.0357   19.9855 H   0  0  0  0  0  0  0  0  0  0  0  0
  1  2  1  0  0  0  0
  1  3  1  0  0  0  0
  1  4  1  0  0  0  0
  4  5  1  0  0  0  0
  4  6  1  0  0  0  0
  4  7  1  0  0  0  0
  7  8  1  0  0  0  0
  7  9  1  0  0  0  0
  7 10  1  0  0  0  0
 10 11  1  0  0  0  0
 10 12  1  0  0  0  0
 10 13  1  0  0  0  0
 13 14  1  0  0  0  0
 13 15  1  0  0  0  0
 13 16  1  0  0  0  0
 16 17  1  0  0  0  0
 16 18  1  0  0  0  0
 16 19  1  0  0  0  0
 19 20  1  0  0  0  0
 19 21  1  0  0  0  0
 19 22  1  0  0  0  0
  1 23  1  0  0  0  0
 23 24  1  0  0  0  0
 23 25  1  0  0  0  0
 23 26  1  0  0  0  0
M  END
> <VConfSearch Rank>
276

> <Conf_Id>
29

> <Delta U+W>
0.886

> <U+W>
22.729

> <U>
71.870

> <W>
-49.141

> <W(PB)>
-51.404

> <W(SA)>
2.262

> <Valence>
2.682

> <Coulomb>
68.933

> <VdW>
0.255

> <VdW6>
-6.833

> <VdW12>
7.088

> <Bond>
0.205

> <Angle>
1.003

> <Pdih>
1.473

> <Idih>
0.000

> <Tether>
0.000

$$$$
VeraChem MOL file


 26 25  0  0  0  0  0  0  0  0999 V2000     
   19.8508   16.5682   24.0912 N   0  3  0  0  0  0  0  0  0  0  0  0
   18.9619   16.2804   24.5292 H   0  0  0  0  0  0  0  0  0  0  0  0
   20.4585   16.8631   24.8712 H   0  0  0  0  0  0  0  0  0  0  0  0
   19.6156   17.7274   23.1440 C   0  0  0  0  0  0  0  0  0  0  0  0
   18.9597   17.3784   22.3424 H   0  0  0  0  0  0  0  0  0  0  0  0
   20.5788   18.0012   22.7068 H   0  0  0  0  0  0  0  0  0  0  0  0
   18.9881   18.9564   23.8288 C   0  0  0  0  0  0  0  0  0  0  0  0
   18.0385   18.6624   24.2953 H   0  0  0  0  0  0  0  0  0  0  0  0
   19.6388   19.2984   24.6437 H   0  0  0  0  0  0  0  0  0  0  0  0
   18.7212   20.1190   22.8409 C   0  0  0  0  0  0  0  0  0  0  0  0
   18.2585   20.9534   23.3848 H   0  0  0  0  0  0  0  0  0  0  0  0
   17.9724   19.7945   22.1051 H   0  0  0  0  0  0  0  0  0  0  0  0
   19.9750   20.6276   22.0792 C   0  0  0  0  0  0  0  0  0  0  0  0
   20.3377   19.8394   21.4058 H   0  0  0  0  0  0  0  0  0  0  0  0
   19.6750   21.4581   21.4253 H   0  0  0  0  0  0  0  0  0  0  0  0
   21.1472   21.0976   22.9779 C   0  0  0  0  0  0  0  0  0  0  0  0
   21.9756   21.4209   22.3322 H   0  0  0  0  0  0  0  0  0  0  0  0
   21.5362   20.2558   23.5662 H   0  0  0  0  0  0  0  0  0  0  0  0
   20.7681   22.2622   23.9207 C   0  0  0  0  0  0  0  0  0  0  0  0
   21.6499   22.6136   24.4719 H   0  0  0  0  0  0  0  0  0  0  0  0
   20.0178   21.9543   24.6595 H   0  0  0  0  0  0  0  0  0  0  0  0
   20.3650   23.1123   23.3551 H   0  0  0  0  0  0  0  0  0  0  0  0
   20.4768   15.4029   23.3377 C   0  0  0  0  0  0  0  0  0  0  0  0
   20.6407   14.5748   24.0309 H   0  0  0  0  0  0  0  0  0  0  0  0
   19.8016   15.0874   22.5392 H   0  0  0  0  0  0  0  0  0  0  0  0
   21.4306   15.7215   22.9116 H   0  0  0  0  0  0  0  0  0  0  0  0
  1  2  1  0  0  0  0
  1  3  1  0  0  0  0
  1  4  1  0  0  0  0
  4  5  1  0  0  0  0
  4  6  1  0  0  0  0
  4  7  1  0  0  0  0
  7  8  1  0  0  0  0
  7  9  1  0  0  0  0
  7 10  1  0  0  0  0
 10 11  1  0  0  0  0
 10 12  1  0  0  0  0
 10 13  1  0  0  0  0
 13 14  1  0  0  0  0
 13 15  1  0  0  0  0
 13 16  1  0  0  0  0
 16 17  1  0  0  0  0
 16 18  1  0  0  0  0
 16 19  1  0  0  0  0
 19 20  1  0  0  0  0
 19 21  1  0  0  0  0
 19 22  1  0  0  0  0
  1 23  1  0  0  0  0
 23 24  1  0  0  0  0
 23 25  1  0  0  0  0
 23 26  1  0  0  0  0
M  END
> <VConfSearch Rank>
277

> <Conf_Id>
82

> <Delta U+W>
1.026

> <U+W>
22.868

> <U>
72.455

> <W>
-49.586

> <W(PB)>
-51.821

> <W(SA)>
2.234

> <Valence>
2.908

> <Coulomb>
69.435

> <VdW>
0.112

> <VdW6>
-7.765

> <VdW12>
7.877

> <Bond>
0.233

> <Angle>
1.170

> <Pdih>
1.506

> <Idih>
0.000

> <Tether>
0.000

$$$$
VeraChem MOL file


 26 25  0  0  0  0  0  0  0  0999 V2000     
   18.1499   17.6071   22.3420 N   0  3  0  0  0  0  0  0  0  0  0  0
   17.5471   18.4239   22.5266 H   0  0  0  0  0  0  0  0  0  0  0  0
   17.7989   16.8608   22.9622 H   0  0  0  0  0  0  0  0  0  0  0  0
   19.5907   17.9329   22.6799 C   0  0  0  0  0  0  0  0  0  0  0  0
   19.9201   18.7265   22.0049 H   0  0  0  0  0  0  0  0  0  0  0  0
   20.1917   17.0415   22.4835 H   0  0  0  0  0  0  0  0  0  0  0  0
   19.7881   18.3791   24.1411 C   0  0  0  0  0  0  0  0  0  0  0  0
   19.1733   19.2654   24.3437 H   0  0  0  0  0  0  0  0  0  0  0  0
   19.4214   17.5900   24.8108 H   0  0  0  0  0  0  0  0  0  0  0  0
   21.2703   18.6741   24.4804 C   0  0  0  0  0  0  0  0  0  0  0  0
   21.8468   17.7430   24.3908 H   0  0  0  0  0  0  0  0  0  0  0  0
   21.3456   18.9676   25.5359 H   0  0  0  0  0  0  0  0  0  0  0  0
   21.9390   19.7575   23.5914 C   0  0  0  0  0  0  0  0  0  0  0  0
   22.9749   19.8979   23.9297 H   0  0  0  0  0  0  0  0  0  0  0  0
   22.0140   19.3878   22.5599 H   0  0  0  0  0  0  0  0  0  0  0  0
   21.2261   21.1337   23.5802 C   0  0  0  0  0  0  0  0  0  0  0  0
   20.2221   21.0381   23.1455 H   0  0  0  0  0  0  0  0  0  0  0  0
   21.7792   21.8091   22.9126 H   0  0  0  0  0  0  0  0  0  0  0  0
   21.1297   21.7857   24.9783 C   0  0  0  0  0  0  0  0  0  0  0  0
   20.4932   21.1996   25.6528 H   0  0  0  0  0  0  0  0  0  0  0  0
   20.6956   22.7912   24.9048 H   0  0  0  0  0  0  0  0  0  0  0  0
   22.1218   21.8811   25.4382 H   0  0  0  0  0  0  0  0  0  0  0  0
   18.0434   17.1835   20.8836 C   0  0  0  0  0  0  0  0  0  0  0  0
   18.6630   16.2990   20.7204 H   0  0  0  0  0  0  0  0  0  0  0  0
   17.0012   16.9514   20.6533 H   0  0  0  0  0  0  0  0  0  0  0  0
   18.3889   18.0004   20.2462 H   0  0  0  0  0  0  0  0  0  0  0  0
  1  2  1  0  0  0  0
  1  3  1  0  0  0  0
  1  4  1  0  0  0  0
  4  5  1  0  0  0  0
  4  6  1  0  0  0  0
  4  7  1  0  0  0  0
  7  8  1  0  0  0  0
  7  9  1  0  0  0  0
  7 10  1  0  0  0  0
 10 11  1  0  0  0  0
 10 12  1  0  0  0  0
 10 13  1  0  0  0  0
 13 14  1  0  0  0  0
 13 15  1  0  0  0  0
 13 16  1  0  0  0  0
 16 17  1  0  0  0  0
 16 18  1  0  0  0  0
 16 19  1  0  0  0  0
 19 20  1  0  0  0  0
 19 21  1  0  0  0  0
 19 22  1  0  0  0  0
  1 23  1  0  0  0  0
 23 24  1  0  0  0  0
 23 25  1  0  0  0  0
 23 26  1  0  0  0  0
M  END
> <VConfSearch Rank>
278

> <Conf_Id>
71

> <Delta U+W>
1.096

> <U+W>
22.938

> <U>
72.455

> <W>
-49.517

> <W(PB)>
-51.795

> <W(SA)>
2.278

> <Valence>
2.908

> <Coulomb>
69.435

> <VdW>
0.112

> <VdW6>
-7.766

> <VdW12>
7.877

> <Bond>
0.233

> <Angle>
1.170

> <Pdih>
1.506

> <Idih>
0.000

> <Tether>
0.000

$$$$
VeraChem MOL file


 26 25  0  0  0  0  0  0  0  0999 V2000     
   21.0970   21.1580   24.1003 N   0  3  0  0  0  0  0  0  0  0  0  0
   21.4716   20.5869   23.3282 H   0  0  0  0  0  0  0  0  0  0  0  0
   21.9143   21.3878   24.6878 H   0  0  0  0  0  0  0  0  0  0  0  0
   20.0987   20.3458   24.9100 C   0  0  0  0  0  0  0  0  0  0  0  0
   19.7126   20.9904   25.7036 H   0  0  0  0  0  0  0  0  0  0  0  0
   20.6493   19.5285   25.3821 H   0  0  0  0  0  0  0  0  0  0  0  0
   18.9195   19.7596   24.1005 C   0  0  0  0  0  0  0  0  0  0  0  0
   18.2742   19.1914   24.7833 H   0  0  0  0  0  0  0  0  0  0  0  0
   18.3008   20.5799   23.7143 H   0  0  0  0  0  0  0  0  0  0  0  0
   19.3484   18.8459   22.9247 C   0  0  0  0  0  0  0  0  0  0  0  0
   19.9288   19.4256   22.1947 H   0  0  0  0  0  0  0  0  0  0  0  0
   18.4412   18.5173   22.4014 H   0  0  0  0  0  0  0  0  0  0  0  0
   20.1619   17.6073   23.3793 C   0  0  0  0  0  0  0  0  0  0  0  0
   21.0543   17.9336   23.9292 H   0  0  0  0  0  0  0  0  0  0  0  0
   19.5657   17.0117   24.0844 H   0  0  0  0  0  0  0  0  0  0  0  0
   20.6228   16.7085   22.2061 C   0  0  0  0  0  0  0  0  0  0  0  0
   21.2834   15.9246   22.6021 H   0  0  0  0  0  0  0  0  0  0  0  0
   21.2307   17.2958   21.5038 H   0  0  0  0  0  0  0  0  0  0  0  0
   19.4552   16.0368   21.4476 C   0  0  0  0  0  0  0  0  0  0  0  0
   18.8345   16.7751   20.9253 H   0  0  0  0  0  0  0  0  0  0  0  0
   18.8127   15.4697   22.1335 H   0  0  0  0  0  0  0  0  0  0  0  0
   19.8393   15.3379   20.6933 H   0  0  0  0  0  0  0  0  0  0  0  0
   20.4634   22.4382   23.5683 C   0  0  0  0  0  0  0  0  0  0  0  0
   21.2162   23.0083   23.0194 H   0  0  0  0  0  0  0  0  0  0  0  0
   19.6380   22.1819   22.9010 H   0  0  0  0  0  0  0  0  0  0  0  0
   20.0919   23.0300   24.4076 H   0  0  0  0  0  0  0  0  0  0  0  0
  1  2  1  0  0  0  0
  1  3  1  0  0  0  0
  1  4  1  0  0  0  0
  4  5  1  0  0  0  0
  4  6  1  0  0  0  0
  4  7  1  0  0  0  0
  7  8  1  0  0  0  0
  7  9  1  0  0  0  0
  7 10  1  0  0  0  0
 10 11  1  0  0  0  0
 10 12  1  0  0  0  0
 10 13  1  0  0  0  0
 13 14  1  0  0  0  0
 13 15  1  0  0  0  0
 13 16  1  0  0  0  0
 16 17  1  0  0  0  0
 16 18  1  0  0  0  0
 16 19  1  0  0  0  0
 19 20  1  0  0  0  0
 19 21  1  0  0  0  0
 19 22  1  0  0  0  0
  1 23  1  0  0  0  0
 23 24  1  0  0  0  0
 23 25  1  0  0  0  0
 23 26  1  0  0  0  0
M  END
> <VConfSearch Rank>
279

> <Conf_Id>
84

> <Delta U+W>
1.456

> <U+W>
23.298

> <U>
73.042

> <W>
-49.744

> <W(PB)>
-51.966

> <W(SA)>
2.222

> <Valence>
2.938

> <Coulomb>
69.625

> <VdW>
0.478

> <VdW6>
-8.182

> <VdW12>
8.660

> <Bond>
0.253

> <Angle>
1.038

> <Pdih>
1.647

> <Idih>
0.000

> <Tether>
0.000

$$$$
VeraChem MOL file


 26 25  0  0  0  0  0  0  0  0999 V2000     
   18.6843   19.5144   25.2251 N   0  3  0  0  0  0  0  0  0  0  0  0
   18.3065   19.1393   24.3421 H   0  0  0  0  0  0  0  0  0  0  0  0
   18.1619   20.3865   25.4018 H   0  0  0  0  0  0  0  0  0  0  0  0
   20.1624   19.8142   25.0699 C   0  0  0  0  0  0  0  0  0  0  0  0
   20.6803   18.8694   24.8887 H   0  0  0  0  0  0  0  0  0  0  0  0
   20.5195   20.2200   26.0198 H   0  0  0  0  0  0  0  0  0  0  0  0
   20.4814   20.8097   23.9353 C   0  0  0  0  0  0  0  0  0  0  0  0
   19.9990   21.7715   24.1545 H   0  0  0  0  0  0  0  0  0  0  0  0
   21.5622   21.0040   23.9322 H   0  0  0  0  0  0  0  0  0  0  0  0
   20.0456   20.3260   22.5291 C   0  0  0  0  0  0  0  0  0  0  0  0
   20.3034   21.1041   21.7973 H   0  0  0  0  0  0  0  0  0  0  0  0
   18.9529   20.2231   22.4907 H   0  0  0  0  0  0  0  0  0  0  0  0
   20.7121   18.9938   22.1087 C   0  0  0  0  0  0  0  0  0  0  0  0
   21.8045   19.0942   22.1718 H   0  0  0  0  0  0  0  0  0  0  0  0
   20.4258   18.1935   22.8042 H   0  0  0  0  0  0  0  0  0  0  0  0
   20.3160   18.5816   20.6734 C   0  0  0  0  0  0  0  0  0  0  0  0
   20.6073   19.3710   19.9664 H   0  0  0  0  0  0  0  0  0  0  0  0
   19.2237   18.4815   20.6038 H   0  0  0  0  0  0  0  0  0  0  0  0
   20.9792   17.2515   20.2565 C   0  0  0  0  0  0  0  0  0  0  0  0
   22.0738   17.3305   20.2835 H   0  0  0  0  0  0  0  0  0  0  0  0
   20.6867   16.9759   19.2350 H   0  0  0  0  0  0  0  0  0  0  0  0
   20.6790   16.4338   20.9247 H   0  0  0  0  0  0  0  0  0  0  0  0
   18.4724   18.5233   26.3609 C   0  0  0  0  0  0  0  0  0  0  0  0
   18.8526   18.9549   27.2894 H   0  0  0  0  0  0  0  0  0  0  0  0
   17.4046   18.3158   26.4608 H   0  0  0  0  0  0  0  0  0  0  0  0
   19.0085   17.5988   26.1357 H   0  0  0  0  0  0  0  0  0  0  0  0
  1  2  1  0  0  0  0
  1  3  1  0  0  0  0
  1  4  1  0  0  0  0
  4  5  1  0  0  0  0
  4  6  1  0  0  0  0
  4  7  1  0  0  0  0
  7  8  1  0  0  0  0
  7  9  1  0  0  0  0
  7 10  1  0  0  0  0
 10 11  1  0  0  0  0
 10 12  1  0  0  0  0
 10 13  1  0  0  0  0
 13 14  1  0  0  0  0
 13 15  1  0  0  0  0
 13 16  1  0  0  0  0
 16 17  1  0  0  0  0
 16 18  1  0  0  0  0
 16 19  1  0  0  0  0
 19 20  1  0  0  0  0
 19 21  1  0  0  0  0
 19 22  1  0  0  0  0
  1 23  1  0  0  0  0
 23 24  1  0  0  0  0
 23 25  1  0  0  0  0
 23 26  1  0  0  0  0
M  END
> <VConfSearch Rank>
280

> <Conf_Id>
73

> <Delta U+W>
0.884

> <U+W>
22.726

> <U>
71.905

> <W>
-49.179

> <W(PB)>
-51.494

> <W(SA)>
2.315

> <Valence>
2.125

> <Coulomb>
69.686

> <VdW>
0.093

> <VdW6>
-6.766

> <VdW12>
6.859

> <Bond>
0.169

> <Angle>
0.621

> <Pdih>
1.336

> <Idih>
0.000

> <Tether>
0.000

$$$$
VeraChem MOL file


 26 25  0  0  0  0  0  0  0  0999 V2000     
   19.8224   20.4671   26.1967 N   0  3  0  0  0  0  0  0  0  0  0  0
   20.4891   21.2300   26.0008 H   0  0  0  0  0  0  0  0  0  0  0  0
   20.3675   19.7483   26.6978 H   0  0  0  0  0  0  0  0  0  0  0  0
   19.2790   19.9017   24.8999 C   0  0  0  0  0  0  0  0  0  0  0  0
   18.7176   20.6938   24.3980 H   0  0  0  0  0  0  0  0  0  0  0  0
   18.5862   19.0944   25.1504 H   0  0  0  0  0  0  0  0  0  0  0  0
   20.3765   19.3696   23.9605 C   0  0  0  0  0  0  0  0  0  0  0  0
   21.0794   20.1797   23.7247 H   0  0  0  0  0  0  0  0  0  0  0  0
   20.9484   18.5856   24.4746 H   0  0  0  0  0  0  0  0  0  0  0  0
   19.7768   18.8042   22.6539 C   0  0  0  0  0  0  0  0  0  0  0  0
   19.2009   19.5900   22.1452 H   0  0  0  0  0  0  0  0  0  0  0  0
   19.0699   17.9978   22.8943 H   0  0  0  0  0  0  0  0  0  0  0  0
   20.8700   18.2666   21.7024 C   0  0  0  0  0  0  0  0  0  0  0  0
   21.5769   19.0728   21.4618 H   0  0  0  0  0  0  0  0  0  0  0  0
   21.4459   17.4808   22.2108 H   0  0  0  0  0  0  0  0  0  0  0  0
   20.2700   17.7012   20.3957 C   0  0  0  0  0  0  0  0  0  0  0  0
   19.6948   18.4842   19.8820 H   0  0  0  0  0  0  0  0  0  0  0  0
   19.5639   16.8924   20.6310 H   0  0  0  0  0  0  0  0  0  0  0  0
   21.3645   17.1653   19.4482 C   0  0  0  0  0  0  0  0  0  0  0  0
   20.9192   16.7684   18.5267 H   0  0  0  0  0  0  0  0  0  0  0  0
   21.9355   16.3561   19.9219 H   0  0  0  0  0  0  0  0  0  0  0  0
   22.0674   17.9604   19.1671 H   0  0  0  0  0  0  0  0  0  0  0  0
   18.6761   20.9691   27.0638 C   0  0  0  0  0  0  0  0  0  0  0  0
   18.0027   20.1382   27.2852 H   0  0  0  0  0  0  0  0  0  0  0  0
   19.0812   21.3735   27.9941 H   0  0  0  0  0  0  0  0  0  0  0  0
   18.1350   21.7510   26.5264 H   0  0  0  0  0  0  0  0  0  0  0  0
  1  2  1  0  0  0  0
  1  3  1  0  0  0  0
  1  4  1  0  0  0  0
  4  5  1  0  0  0  0
  4  6  1  0  0  0  0
  4  7  1  0  0  0  0
  7  8  1  0  0  0  0
  7  9  1  0  0  0  0
  7 10  1  0  0  0  0
 10 11  1  0  0  0  0
 10 12  1  0  0  0  0
 10 13  1  0  0  0  0
 13 14  1  0  0  0  0
 13 15  1  0  0  0  0
 13 16  1  0  0  0  0
 16 17  1  0  0  0  0
 16 18  1  0  0  0  0
 16 19  1  0  0  0  0
 19 20  1  0  0  0  0
 19 21  1  0  0  0  0
 19 22  1  0  0  0  0
  1 23  1  0  0  0  0
 23 24  1  0  0  0  0
 23 25  1  0  0  0  0
 23 26  1  0  0  0  0
M  END
> <VConfSearch Rank>
281

> <Conf_Id>
11

> <Delta U+W>
0.000

> <U+W>
21.842

> <U>
70.357

> <W>
-48.515

> <W(PB)>
-50.856

> <W(SA)>
2.341

> <Valence>
1.714

> <Coulomb>
68.480

> <VdW>
0.163

> <VdW6>
-5.268

> <VdW12>
5.431

> <Bond>
0.126

> <Angle>
0.350

> <Pdih>
1.238

> <Idih>
0.000

> <Tether>
0.000

$$$$
VeraChem MOL file


 26 25  0  0  0  0  0  0  0  0999 V2000     
   22.8024   19.2006   25.1518 N   0  3  0  0  0  0  0  0  0  0  0  0
   23.0930   18.9869   26.1192 H   0  0  0  0  0  0  0  0  0  0  0  0
   22.8993   20.2241   25.0650 H   0  0  0  0  0  0  0  0  0  0  0  0
   21.3522   18.7915   24.9547 C   0  0  0  0  0  0  0  0  0  0  0  0
   20.7819   19.2052   25.7903 H   0  0  0  0  0  0  0  0  0  0  0  0
   21.2988   17.7016   25.0145 H   0  0  0  0  0  0  0  0  0  0  0  0
   20.7245   19.2756   23.6317 C   0  0  0  0  0  0  0  0  0  0  0  0
   20.8273   20.3664   23.5577 H   0  0  0  0  0  0  0  0  0  0  0  0
   21.2684   18.8424   22.7823 H   0  0  0  0  0  0  0  0  0  0  0  0
   19.2324   18.8864   23.5403 C   0  0  0  0  0  0  0  0  0  0  0  0
   18.6883   19.3185   24.3918 H   0  0  0  0  0  0  0  0  0  0  0  0
   19.1334   17.7949   23.6213 H   0  0  0  0  0  0  0  0  0  0  0  0
   18.5903   19.3671   22.2189 C   0  0  0  0  0  0  0  0  0  0  0  0
   18.6895   20.4585   22.1378 H   0  0  0  0  0  0  0  0  0  0  0  0
   19.1340   18.9349   21.3674 H   0  0  0  0  0  0  0  0  0  0  0  0
   17.0980   18.9777   22.1279 C   0  0  0  0  0  0  0  0  0  0  0  0
   16.5491   19.4099   22.9763 H   0  0  0  0  0  0  0  0  0  0  0  0
   16.9936   17.8864   22.2062 H   0  0  0  0  0  0  0  0  0  0  0  0
   16.4603   19.4593   20.8071 C   0  0  0  0  0  0  0  0  0  0  0  0
   15.4014   19.1736   20.7610 H   0  0  0  0  0  0  0  0  0  0  0  0
   16.9665   19.0163   19.9396 H   0  0  0  0  0  0  0  0  0  0  0  0
   16.5184   20.5517   20.7158 H   0  0  0  0  0  0  0  0  0  0  0  0
   23.7180   18.4834   24.1661 C   0  0  0  0  0  0  0  0  0  0  0  0
   23.4452   18.7659   23.1473 H   0  0  0  0  0  0  0  0  0  0  0  0
   24.7523   18.7741   24.3629 H   0  0  0  0  0  0  0  0  0  0  0  0
   23.6077   17.4043   24.2939 H   0  0  0  0  0  0  0  0  0  0  0  0
  1  2  1  0  0  0  0
  1  3  1  0  0  0  0
  1  4  1  0  0  0  0
  4  5  1  0  0  0  0
  4  6  1  0  0  0  0
  4  7  1  0  0  0  0
  7  8  1  0  0  0  0
  7  9  1  0  0  0  0
  7 10  1  0  0  0  0
 10 11  1  0  0  0  0
 10 12  1  0  0  0  0
 10 13  1  0  0  0  0
 13 14  1  0  0  0  0
 13 15  1  0  0  0  0
 13 16  1  0  0  0  0
 16 17  1  0  0  0  0
 16 18  1  0  0  0  0
 16 19  1  0  0  0  0
 19 20  1  0  0  0  0
 19 21  1  0  0  0  0
 19 22  1  0  0  0  0
  1 23  1  0  0  0  0
 23 24  1  0  0  0  0
 23 25  1  0  0  0  0
 23 26  1  0  0  0  0
M  END
> <VConfSearch Rank>
282

> <Conf_Id>
102

> <Delta U+W>
0.121

> <U+W>
21.963

> <U>
70.745

> <W>
-48.782

> <W(PB)>
-51.111

> <W(SA)>
2.329

> <Valence>
1.993

> <Coulomb>
68.323

> <VdW>
0.429

> <VdW6>
-5.973

> <VdW12>
6.402

> <Bond>
0.161

> <Angle>
0.472

> <Pdih>
1.360

> <Idih>
0.000

> <Tether>
0.000

$$$$
VeraChem MOL file


 26 25  0  0  0  0  0  0  0  0999 V2000     
   18.4902   17.8045   25.9597 N   0  3  0  0  0  0  0  0  0  0  0  0
   18.5116   18.6927   26.4843 H   0  0  0  0  0  0  0  0  0  0  0  0
   18.6327   17.0711   26.6722 H   0  0  0  0  0  0  0  0  0  0  0  0
   19.6270   17.7619   24.9521 C   0  0  0  0  0  0  0  0  0  0  0  0
   19.5458   16.8267   24.3924 H   0  0  0  0  0  0  0  0  0  0  0  0
   20.5617   17.7380   25.5183 H   0  0  0  0  0  0  0  0  0  0  0  0
   19.6630   18.9558   23.9765 C   0  0  0  0  0  0  0  0  0  0  0  0
   18.7429   18.9743   23.3783 H   0  0  0  0  0  0  0  0  0  0  0  0
   19.6944   19.8926   24.5485 H   0  0  0  0  0  0  0  0  0  0  0  0
   20.8867   18.8790   23.0368 C   0  0  0  0  0  0  0  0  0  0  0  0
   20.8550   17.9373   22.4711 H   0  0  0  0  0  0  0  0  0  0  0  0
   21.8079   18.8586   23.6359 H   0  0  0  0  0  0  0  0  0  0  0  0
   20.9355   20.0711   22.0540 C   0  0  0  0  0  0  0  0  0  0  0  0
   20.0147   20.0914   21.4547 H   0  0  0  0  0  0  0  0  0  0  0  0
   20.9669   21.0127   22.6195 H   0  0  0  0  0  0  0  0  0  0  0  0
   22.1596   19.9940   21.1144 C   0  0  0  0  0  0  0  0  0  0  0  0
   22.1316   19.0545   20.5446 H   0  0  0  0  0  0  0  0  0  0  0  0
   23.0836   19.9761   21.7092 H   0  0  0  0  0  0  0  0  0  0  0  0
   22.2048   21.1857   20.1344 C   0  0  0  0  0  0  0  0  0  0  0  0
   21.3085   21.2105   19.5009 H   0  0  0  0  0  0  0  0  0  0  0  0
   23.0803   21.1134   19.4761 H   0  0  0  0  0  0  0  0  0  0  0  0
   22.2678   22.1393   20.6747 H   0  0  0  0  0  0  0  0  0  0  0  0
   17.1403   17.6090   25.2786 C   0  0  0  0  0  0  0  0  0  0  0  0
   17.1410   16.6544   24.7481 H   0  0  0  0  0  0  0  0  0  0  0  0
   16.3544   17.6085   26.0372 H   0  0  0  0  0  0  0  0  0  0  0  0
   16.9690   18.4250   24.5737 H   0  0  0  0  0  0  0  0  0  0  0  0
  1  2  1  0  0  0  0
  1  3  1  0  0  0  0
  1  4  1  0  0  0  0
  4  5  1  0  0  0  0
  4  6  1  0  0  0  0
  4  7  1  0  0  0  0
  7  8  1  0  0  0  0
  7  9  1  0  0  0  0
  7 10  1  0  0  0  0
 10 11  1  0  0  0  0
 10 12  1  0  0  0  0
 10 13  1  0  0  0  0
 13 14  1  0  0  0  0
 13 15  1  0  0  0  0
 13 16  1  0  0  0  0
 16 17  1  0  0  0  0
 16 18  1  0  0  0  0
 16 19  1  0  0  0  0
 19 20  1  0  0  0  0
 19 21  1  0  0  0  0
 19 22  1  0  0  0  0
  1 23  1  0  0  0  0
 23 24  1  0  0  0  0
 23 25  1  0  0  0  0
 23 26  1  0  0  0  0
M  END
> <VConfSearch Rank>
283

> <Conf_Id>
37

> <Delta U+W>
0.125

> <U+W>
21.967

> <U>
70.745

> <W>
-48.778

> <W(PB)>
-51.115

> <W(SA)>
2.337

> <Valence>
1.993

> <Coulomb>
68.323

> <VdW>
0.429

> <VdW6>
-5.973

> <VdW12>
6.403

> <Bond>
0.161

> <Angle>
0.472

> <Pdih>
1.360

> <Idih>
0.000

> <Tether>
0.000

$$$$
VeraChem MOL file


 26 25  0  0  0  0  0  0  0  0999 V2000     
   21.0069   21.0453   25.4013 N   0  3  0  0  0  0  0  0  0  0  0  0
   20.5839   21.9758   25.2598 H   0  0  0  0  0  0  0  0  0  0  0  0
   21.9753   21.1286   25.0548 H   0  0  0  0  0  0  0  0  0  0  0  0
   20.2535   20.0013   24.6020 C   0  0  0  0  0  0  0  0  0  0  0  0
   19.2337   19.9521   24.9920 H   0  0  0  0  0  0  0  0  0  0  0  0
   20.7364   19.0370   24.7765 H   0  0  0  0  0  0  0  0  0  0  0  0
   20.2164   20.3014   23.0910 C   0  0  0  0  0  0  0  0  0  0  0  0
   19.7719   21.2933   22.9343 H   0  0  0  0  0  0  0  0  0  0  0  0
   21.2409   20.3506   22.6985 H   0  0  0  0  0  0  0  0  0  0  0  0
   19.4029   19.2561   22.2915 C   0  0  0  0  0  0  0  0  0  0  0  0
   19.3305   19.5999   21.2515 H   0  0  0  0  0  0  0  0  0  0  0  0
   18.3754   19.2173   22.6790 H   0  0  0  0  0  0  0  0  0  0  0  0
   20.0304   17.8391   22.3284 C   0  0  0  0  0  0  0  0  0  0  0  0
   21.0505   17.8748   21.9219 H   0  0  0  0  0  0  0  0  0  0  0  0
   20.1247   17.5059   23.3703 H   0  0  0  0  0  0  0  0  0  0  0  0
   19.2052   16.7796   21.5580 C   0  0  0  0  0  0  0  0  0  0  0  0
   18.1866   16.7313   21.9680 H   0  0  0  0  0  0  0  0  0  0  0  0
   19.6527   15.7909   21.7316 H   0  0  0  0  0  0  0  0  0  0  0  0
   19.1415   17.0348   20.0347 C   0  0  0  0  0  0  0  0  0  0  0  0
   18.5890   17.9532   19.8013 H   0  0  0  0  0  0  0  0  0  0  0  0
   18.6304   16.2061   19.5278 H   0  0  0  0  0  0  0  0  0  0  0  0
   20.1483   17.1200   19.6058 H   0  0  0  0  0  0  0  0  0  0  0  0
   20.9980   20.6735   26.8776 C   0  0  0  0  0  0  0  0  0  0  0  0
   21.4799   19.7018   27.0062 H   0  0  0  0  0  0  0  0  0  0  0  0
   21.5435   21.4333   27.4417 H   0  0  0  0  0  0  0  0  0  0  0  0
   19.9651   20.6238   27.2292 H   0  0  0  0  0  0  0  0  0  0  0  0
  1  2  1  0  0  0  0
  1  3  1  0  0  0  0
  1  4  1  0  0  0  0
  4  5  1  0  0  0  0
  4  6  1  0  0  0  0
  4  7  1  0  0  0  0
  7  8  1  0  0  0  0
  7  9  1  0  0  0  0
  7 10  1  0  0  0  0
 10 11  1  0  0  0  0
 10 12  1  0  0  0  0
 10 13  1  0  0  0  0
 13 14  1  0  0  0  0
 13 15  1  0  0  0  0
 13 16  1  0  0  0  0
 16 17  1  0  0  0  0
 16 18  1  0  0  0  0
 16 19  1  0  0  0  0
 19 20  1  0  0  0  0
 19 21  1  0  0  0  0
 19 22  1  0  0  0  0
  1 23  1  0  0  0  0
 23 24  1  0  0  0  0
 23 25  1  0  0  0  0
 23 26  1  0  0  0  0
M  END
> <VConfSearch Rank>
284

> <Conf_Id>
137

> <Delta U+W>
1.038

> <U+W>
22.880

> <U>
71.810

> <W>
-48.930

> <W(PB)>
-51.257

> <W(SA)>
2.327

> <Valence>
2.568

> <Coulomb>
68.877

> <VdW>
0.364

> <VdW6>
-6.470

> <VdW12>
6.834

> <Bond>
0.191

> <Angle>
0.752

> <Pdih>
1.626

> <Idih>
0.000

> <Tether>
0.000

$$$$
VeraChem MOL file


 26 25  0  0  0  0  0  0  0  0999 V2000     
   20.3301   20.6666   20.8017 N   0  3  0  0  0  0  0  0  0  0  0  0
   19.6294   20.0326   20.3873 H   0  0  0  0  0  0  0  0  0  0  0  0
   21.2467   20.2769   20.5319 H   0  0  0  0  0  0  0  0  0  0  0  0
   20.1929   20.6834   22.3110 C   0  0  0  0  0  0  0  0  0  0  0  0
   19.2094   21.0938   22.5537 H   0  0  0  0  0  0  0  0  0  0  0  0
   20.9552   21.3577   22.7093 H   0  0  0  0  0  0  0  0  0  0  0  0
   20.3459   19.2921   22.9520 C   0  0  0  0  0  0  0  0  0  0  0  0
   19.5881   18.6198   22.5307 H   0  0  0  0  0  0  0  0  0  0  0  0
   21.3288   18.8771   22.6920 H   0  0  0  0  0  0  0  0  0  0  0  0
   20.2005   19.3624   24.4905 C   0  0  0  0  0  0  0  0  0  0  0  0
   19.1989   19.7315   24.7517 H   0  0  0  0  0  0  0  0  0  0  0  0
   20.9128   20.1019   24.8825 H   0  0  0  0  0  0  0  0  0  0  0  0
   20.4568   18.0100   25.2006 C   0  0  0  0  0  0  0  0  0  0  0  0
   21.4649   17.6494   24.9538 H   0  0  0  0  0  0  0  0  0  0  0  0
   20.4483   18.1800   26.2861 H   0  0  0  0  0  0  0  0  0  0  0  0
   19.4138   16.9206   24.8548 C   0  0  0  0  0  0  0  0  0  0  0  0
   19.4594   16.6772   23.7850 H   0  0  0  0  0  0  0  0  0  0  0  0
   18.4014   17.2996   25.0527 H   0  0  0  0  0  0  0  0  0  0  0  0
   19.6454   15.6311   25.6712 C   0  0  0  0  0  0  0  0  0  0  0  0
   20.6399   15.2109   25.4717 H   0  0  0  0  0  0  0  0  0  0  0  0
   18.8995   14.8687   25.4117 H   0  0  0  0  0  0  0  0  0  0  0  0
   19.5665   15.8257   26.7487 H   0  0  0  0  0  0  0  0  0  0  0  0
   20.1664   22.0765   20.2510 C   0  0  0  0  0  0  0  0  0  0  0  0
   20.9382   22.7207   20.6777 H   0  0  0  0  0  0  0  0  0  0  0  0
   20.2674   22.0503   19.1637 H   0  0  0  0  0  0  0  0  0  0  0  0
   19.1778   22.4548   20.5205 H   0  0  0  0  0  0  0  0  0  0  0  0
  1  2  1  0  0  0  0
  1  3  1  0  0  0  0
  1  4  1  0  0  0  0
  4  5  1  0  0  0  0
  4  6  1  0  0  0  0
  4  7  1  0  0  0  0
  7  8  1  0  0  0  0
  7  9  1  0  0  0  0
  7 10  1  0  0  0  0
 10 11  1  0  0  0  0
 10 12  1  0  0  0  0
 10 13  1  0  0  0  0
 13 14  1  0  0  0  0
 13 15  1  0  0  0  0
 13 16  1  0  0  0  0
 16 17  1  0  0  0  0
 16 18  1  0  0  0  0
 16 19  1  0  0  0  0
 19 20  1  0  0  0  0
 19 21  1  0  0  0  0
 19 22  1  0  0  0  0
  1 23  1  0  0  0  0
 23 24  1  0  0  0  0
 23 25  1  0  0  0  0
 23 26  1  0  0  0  0
M  END
> <VConfSearch Rank>
285

> <Conf_Id>
35

> <Delta U+W>
0.670

> <U+W>
22.512

> <U>
71.348

> <W>
-48.837

> <W(PB)>
-51.150

> <W(SA)>
2.313

> <Valence>
2.262

> <Coulomb>
68.807

> <VdW>
0.280

> <VdW6>
-5.915

> <VdW12>
6.195

> <Bond>
0.164

> <Angle>
0.622

> <Pdih>
1.475

> <Idih>
0.000

> <Tether>
0.000

$$$$
VeraChem MOL file


 26 25  0  0  0  0  0  0  0  0999 V2000     
   19.4469   21.3204   21.4503 N   0  3  0  0  0  0  0  0  0  0  0  0
   18.4346   21.1311   21.3847 H   0  0  0  0  0  0  0  0  0  0  0  0
   19.8811   20.7542   20.7048 H   0  0  0  0  0  0  0  0  0  0  0  0
   19.9721   20.8920   22.8059 C   0  0  0  0  0  0  0  0  0  0  0  0
   19.4832   21.5081   23.5647 H   0  0  0  0  0  0  0  0  0  0  0  0
   21.0446   21.1010   22.8313 H   0  0  0  0  0  0  0  0  0  0  0  0
   19.7274   19.4030   23.1111 C   0  0  0  0  0  0  0  0  0  0  0  0
   18.6502   19.1944   23.0684 H   0  0  0  0  0  0  0  0  0  0  0  0
   20.2066   18.7959   22.3329 H   0  0  0  0  0  0  0  0  0  0  0  0
   20.2782   19.0162   24.5040 C   0  0  0  0  0  0  0  0  0  0  0  0
   19.8474   19.6905   25.2574 H   0  0  0  0  0  0  0  0  0  0  0  0
   21.3647   19.1786   24.5312 H   0  0  0  0  0  0  0  0  0  0  0  0
   19.9611   17.5565   24.9133 C   0  0  0  0  0  0  0  0  0  0  0  0
   20.2837   17.4090   25.9533 H   0  0  0  0  0  0  0  0  0  0  0  0
   18.8737   17.3989   24.9034 H   0  0  0  0  0  0  0  0  0  0  0  0
   20.6498   16.4982   24.0189 C   0  0  0  0  0  0  0  0  0  0  0  0
   21.7320   16.6867   23.9868 H   0  0  0  0  0  0  0  0  0  0  0  0
   20.2822   16.5757   22.9871 H   0  0  0  0  0  0  0  0  0  0  0  0
   20.3957   15.0653   24.5339 C   0  0  0  0  0  0  0  0  0  0  0  0
   20.7877   14.9354   25.5511 H   0  0  0  0  0  0  0  0  0  0  0  0
   20.8883   14.3278   23.8870 H   0  0  0  0  0  0  0  0  0  0  0  0
   19.3222   14.8360   24.5494 H   0  0  0  0  0  0  0  0  0  0  0  0
   19.7287   22.8002   21.2296 C   0  0  0  0  0  0  0  0  0  0  0  0
   20.8068   22.9705   21.2705 H   0  0  0  0  0  0  0  0  0  0  0  0
   19.3454   23.0957   20.2503 H   0  0  0  0  0  0  0  0  0  0  0  0
   19.2324   23.3807   22.0104 H   0  0  0  0  0  0  0  0  0  0  0  0
  1  2  1  0  0  0  0
  1  3  1  0  0  0  0
  1  4  1  0  0  0  0
  4  5  1  0  0  0  0
  4  6  1  0  0  0  0
  4  7  1  0  0  0  0
  7  8  1  0  0  0  0
  7  9  1  0  0  0  0
  7 10  1  0  0  0  0
 10 11  1  0  0  0  0
 10 12  1  0  0  0  0
 10 13  1  0  0  0  0
 13 14  1  0  0  0  0
 13 15  1  0  0  0  0
 13 16  1  0  0  0  0
 16 17  1  0  0  0  0
 16 18  1  0  0  0  0
 16 19  1  0  0  0  0
 19 20  1  0  0  0  0
 19 21  1  0  0  0  0
 19 22  1  0  0  0  0
  1 23  1  0  0  0  0
 23 24  1  0  0  0  0
 23 25  1  0  0  0  0
 23 26  1  0  0  0  0
M  END
> <VConfSearch Rank>
286

> <Conf_Id>
36

> <Delta U+W>
0.662

> <U+W>
22.504

> <U>
71.348

> <W>
-48.844

> <W(PB)>
-51.157

> <W(SA)>
2.313

> <Valence>
2.262

> <Coulomb>
68.807

> <VdW>
0.280

> <VdW6>
-5.916

> <VdW12>
6.195

> <Bond>
0.164

> <Angle>
0.622

> <Pdih>
1.475

> <Idih>
0.000

> <Tether>
0.000

$$$$
VeraChem MOL file


 26 25  0  0  0  0  0  0  0  0999 V2000     
   22.5598   20.1413   24.7635 N   0  3  0  0  0  0  0  0  0  0  0  0
   22.1321   21.0215   25.0907 H   0  0  0  0  0  0  0  0  0  0  0  0
   23.3694   20.4261   24.1905 H   0  0  0  0  0  0  0  0  0  0  0  0
   21.5712   19.3609   23.9208 C   0  0  0  0  0  0  0  0  0  0  0  0
   20.7315   19.0853   24.5631 H   0  0  0  0  0  0  0  0  0  0  0  0
   22.0651   18.4451   23.5865 H   0  0  0  0  0  0  0  0  0  0  0  0
   21.0576   20.1480   22.6997 C   0  0  0  0  0  0  0  0  0  0  0  0
   20.5630   21.0691   23.0355 H   0  0  0  0  0  0  0  0  0  0  0  0
   21.9141   20.4569   22.0857 H   0  0  0  0  0  0  0  0  0  0  0  0
   20.0837   19.3243   21.8244 C   0  0  0  0  0  0  0  0  0  0  0  0
   20.5903   18.4168   21.4672 H   0  0  0  0  0  0  0  0  0  0  0  0
   19.8317   19.9111   20.9301 H   0  0  0  0  0  0  0  0  0  0  0  0
   18.7798   18.9380   22.5636 C   0  0  0  0  0  0  0  0  0  0  0  0
   19.0131   18.3090   23.4331 H   0  0  0  0  0  0  0  0  0  0  0  0
   18.2932   19.8450   22.9483 H   0  0  0  0  0  0  0  0  0  0  0  0
   17.7991   18.1812   21.6403 C   0  0  0  0  0  0  0  0  0  0  0  0
   18.2811   17.2730   21.2518 H   0  0  0  0  0  0  0  0  0  0  0  0
   17.5514   18.8052   20.7701 H   0  0  0  0  0  0  0  0  0  0  0  0
   16.4998   17.7950   22.3790 C   0  0  0  0  0  0  0  0  0  0  0  0
   16.7114   17.1412   23.2351 H   0  0  0  0  0  0  0  0  0  0  0  0
   15.8165   17.2594   21.7073 H   0  0  0  0  0  0  0  0  0  0  0  0
   15.9769   18.6860   22.7504 H   0  0  0  0  0  0  0  0  0  0  0  0
   23.0133   19.2960   25.9457 C   0  0  0  0  0  0  0  0  0  0  0  0
   23.4917   18.3869   25.5747 H   0  0  0  0  0  0  0  0  0  0  0  0
   23.7248   19.8694   26.5441 H   0  0  0  0  0  0  0  0  0  0  0  0
   22.1450   19.0352   26.5549 H   0  0  0  0  0  0  0  0  0  0  0  0
  1  2  1  0  0  0  0
  1  3  1  0  0  0  0
  1  4  1  0  0  0  0
  4  5  1  0  0  0  0
  4  6  1  0  0  0  0
  4  7  1  0  0  0  0
  7  8  1  0  0  0  0
  7  9  1  0  0  0  0
  7 10  1  0  0  0  0
 10 11  1  0  0  0  0
 10 12  1  0  0  0  0
 10 13  1  0  0  0  0
 13 14  1  0  0  0  0
 13 15  1  0  0  0  0
 13 16  1  0  0  0  0
 16 17  1  0  0  0  0
 16 18  1  0  0  0  0
 16 19  1  0  0  0  0
 19 20  1  0  0  0  0
 19 21  1  0  0  0  0
 19 22  1  0  0  0  0
  1 23  1  0  0  0  0
 23 24  1  0  0  0  0
 23 25  1  0  0  0  0
 23 26  1  0  0  0  0
M  END
> <VConfSearch Rank>
287

> <Conf_Id>
46

> <Delta U+W>
0.496

> <U+W>
22.338

> <U>
71.138

> <W>
-48.799

> <W(PB)>
-51.136

> <W(SA)>
2.337

> <Valence>
2.016

> <Coulomb>
68.932

> <VdW>
0.190

> <VdW6>
-5.902

> <VdW12>
6.092

> <Bond>
0.149

> <Angle>
0.477

> <Pdih>
1.390

> <Idih>
0.000

> <Tether>
0.000

$$$$
VeraChem MOL file


 26 25  0  0  0  0  0  0  0  0999 V2000     
   18.5577   17.8426   25.6518 N   0  3  0  0  0  0  0  0  0  0  0  0
   18.9020   18.1056   26.5884 H   0  0  0  0  0  0  0  0  0  0  0  0
   18.8911   16.8783   25.4976 H   0  0  0  0  0  0  0  0  0  0  0  0
   19.1364   18.7703   24.6024 C   0  0  0  0  0  0  0  0  0  0  0  0
   18.7690   19.7790   24.8072 H   0  0  0  0  0  0  0  0  0  0  0  0
   18.7515   18.4538   23.6302 H   0  0  0  0  0  0  0  0  0  0  0  0
   20.6770   18.7751   24.5772 C   0  0  0  0  0  0  0  0  0  0  0  0
   21.0514   19.0519   25.5718 H   0  0  0  0  0  0  0  0  0  0  0  0
   21.0462   17.7612   24.3732 H   0  0  0  0  0  0  0  0  0  0  0  0
   21.2544   19.7587   23.5320 C   0  0  0  0  0  0  0  0  0  0  0  0
   22.3485   19.7770   23.6324 H   0  0  0  0  0  0  0  0  0  0  0  0
   20.9054   20.7766   23.7549 H   0  0  0  0  0  0  0  0  0  0  0  0
   20.8832   19.3863   22.0762 C   0  0  0  0  0  0  0  0  0  0  0  0
   21.2039   18.3562   21.8673 H   0  0  0  0  0  0  0  0  0  0  0  0
   19.7928   19.4122   21.9481 H   0  0  0  0  0  0  0  0  0  0  0  0
   21.5355   20.3443   21.0544 C   0  0  0  0  0  0  0  0  0  0  0  0
   22.6284   20.3202   21.1675 H   0  0  0  0  0  0  0  0  0  0  0  0
   21.2187   21.3767   21.2592 H   0  0  0  0  0  0  0  0  0  0  0  0
   21.1633   19.9730   19.6030 C   0  0  0  0  0  0  0  0  0  0  0  0
   21.4977   18.9567   19.3573 H   0  0  0  0  0  0  0  0  0  0  0  0
   21.6359   20.6638   18.8928 H   0  0  0  0  0  0  0  0  0  0  0  0
   20.0775   20.0223   19.4487 H   0  0  0  0  0  0  0  0  0  0  0  0
   17.0368   17.8954   25.6076 C   0  0  0  0  0  0  0  0  0  0  0  0
   16.6329   17.2233   26.3681 H   0  0  0  0  0  0  0  0  0  0  0  0
   16.7070   18.9176   25.8060 H   0  0  0  0  0  0  0  0  0  0  0  0
   16.6950   17.5815   24.6189 H   0  0  0  0  0  0  0  0  0  0  0  0
  1  2  1  0  0  0  0
  1  3  1  0  0  0  0
  1  4  1  0  0  0  0
  4  5  1  0  0  0  0
  4  6  1  0  0  0  0
  4  7  1  0  0  0  0
  7  8  1  0  0  0  0
  7  9  1  0  0  0  0
  7 10  1  0  0  0  0
 10 11  1  0  0  0  0
 10 12  1  0  0  0  0
 10 13  1  0  0  0  0
 13 14  1  0  0  0  0
 13 15  1  0  0  0  0
 13 16  1  0  0  0  0
 16 17  1  0  0  0  0
 16 18  1  0  0  0  0
 16 19  1  0  0  0  0
 19 20  1  0  0  0  0
 19 21  1  0  0  0  0
 19 22  1  0  0  0  0
  1 23  1  0  0  0  0
 23 24  1  0  0  0  0
 23 25  1  0  0  0  0
 23 26  1  0  0  0  0
M  END
> <VConfSearch Rank>
288

> <Conf_Id>
45

> <Delta U+W>
0.471

> <U+W>
22.313

> <U>
71.138

> <W>
-48.825

> <W(PB)>
-51.169

> <W(SA)>
2.344

> <Valence>
2.016

> <Coulomb>
68.932

> <VdW>
0.190

> <VdW6>
-5.902

> <VdW12>
6.092

> <Bond>
0.149

> <Angle>
0.477

> <Pdih>
1.390

> <Idih>
0.000

> <Tether>
0.000

$$$$
VeraChem MOL file


 26 25  0  0  0  0  0  0  0  0999 V2000     
   17.8937   20.3764   23.8608 N   0  3  0  0  0  0  0  0  0  0  0  0
   18.5795   20.5590   24.6088 H   0  0  0  0  0  0  0  0  0  0  0  0
   17.4880   19.4526   24.0769 H   0  0  0  0  0  0  0  0  0  0  0  0
   18.5901   20.3384   22.5142 C   0  0  0  0  0  0  0  0  0  0  0  0
   19.0135   21.3281   22.3254 H   0  0  0  0  0  0  0  0  0  0  0  0
   17.8291   20.1422   21.7545 H   0  0  0  0  0  0  0  0  0  0  0  0
   19.6989   19.2723   22.4144 C   0  0  0  0  0  0  0  0  0  0  0  0
   19.2634   18.2831   22.6036 H   0  0  0  0  0  0  0  0  0  0  0  0
   20.0752   19.2587   21.3829 H   0  0  0  0  0  0  0  0  0  0  0  0
   20.8744   19.5436   23.3866 C   0  0  0  0  0  0  0  0  0  0  0  0
   20.5292   19.4707   24.4265 H   0  0  0  0  0  0  0  0  0  0  0  0
   21.2212   20.5771   23.2471 H   0  0  0  0  0  0  0  0  0  0  0  0
   22.0776   18.5907   23.1806 C   0  0  0  0  0  0  0  0  0  0  0  0
   22.4435   18.6766   22.1481 H   0  0  0  0  0  0  0  0  0  0  0  0
   22.9010   18.9244   23.8272 H   0  0  0  0  0  0  0  0  0  0  0  0
   21.7565   17.1109   23.4988 C   0  0  0  0  0  0  0  0  0  0  0  0
   20.9875   16.7332   22.8120 H   0  0  0  0  0  0  0  0  0  0  0  0
   21.3441   17.0305   24.5143 H   0  0  0  0  0  0  0  0  0  0  0  0
   23.0111   16.2188   23.3846 C   0  0  0  0  0  0  0  0  0  0  0  0
   23.4299   16.2546   22.3704 H   0  0  0  0  0  0  0  0  0  0  0  0
   22.7651   15.1731   23.6106 H   0  0  0  0  0  0  0  0  0  0  0  0
   23.7904   16.5404   24.0878 H   0  0  0  0  0  0  0  0  0  0  0  0
   16.8121   21.4476   23.8551 C   0  0  0  0  0  0  0  0  0  0  0  0
   16.0817   21.2162   23.0768 H   0  0  0  0  0  0  0  0  0  0  0  0
   16.3196   21.4646   24.8299 H   0  0  0  0  0  0  0  0  0  0  0  0
   17.2699   22.4191   23.6560 H   0  0  0  0  0  0  0  0  0  0  0  0
  1  2  1  0  0  0  0
  1  3  1  0  0  0  0
  1  4  1  0  0  0  0
  4  5  1  0  0  0  0
  4  6  1  0  0  0  0
  4  7  1  0  0  0  0
  7  8  1  0  0  0  0
  7  9  1  0  0  0  0
  7 10  1  0  0  0  0
 10 11  1  0  0  0  0
 10 12  1  0  0  0  0
 10 13  1  0  0  0  0
 13 14  1  0  0  0  0
 13 15  1  0  0  0  0
 13 16  1  0  0  0  0
 16 17  1  0  0  0  0
 16 18  1  0  0  0  0
 16 19  1  0  0  0  0
 19 20  1  0  0  0  0
 19 21  1  0  0  0  0
 19 22  1  0  0  0  0
  1 23  1  0  0  0  0
 23 24  1  0  0  0  0
 23 25  1  0  0  0  0
 23 26  1  0  0  0  0
M  END
> <VConfSearch Rank>
289

> <Conf_Id>
143

> <Delta U+W>
0.915

> <U+W>
22.757

> <U>
71.994

> <W>
-49.237

> <W(PB)>
-51.537

> <W(SA)>
2.300

> <Valence>
2.376

> <Coulomb>
69.315

> <VdW>
0.303

> <VdW6>
-6.508

> <VdW12>
6.810

> <Bond>
0.182

> <Angle>
0.660

> <Pdih>
1.534

> <Idih>
0.000

> <Tether>
0.000

$$$$
VeraChem MOL file


 26 25  0  0  0  0  0  0  0  0999 V2000     
   22.1554   18.1523   24.5149 N   0  3  0  0  0  0  0  0  0  0  0  0
   22.5897   18.7038   23.7598 H   0  0  0  0  0  0  0  0  0  0  0  0
   22.0351   17.2027   24.1296 H   0  0  0  0  0  0  0  0  0  0  0  0
   20.8067   18.7411   24.8819 C   0  0  0  0  0  0  0  0  0  0  0  0
   20.9726   19.7470   25.2756 H   0  0  0  0  0  0  0  0  0  0  0  0
   20.3876   18.1264   25.6826 H   0  0  0  0  0  0  0  0  0  0  0  0
   19.8076   18.8007   23.7095 C   0  0  0  0  0  0  0  0  0  0  0  0
   19.6655   17.7935   23.2961 H   0  0  0  0  0  0  0  0  0  0  0  0
   18.8388   19.1214   24.1117 H   0  0  0  0  0  0  0  0  0  0  0  0
   20.2508   19.7790   22.5943 C   0  0  0  0  0  0  0  0  0  0  0  0
   21.2658   19.5222   22.2640 H   0  0  0  0  0  0  0  0  0  0  0  0
   20.3121   20.7960   23.0059 H   0  0  0  0  0  0  0  0  0  0  0  0
   19.3312   19.7842   21.3455 C   0  0  0  0  0  0  0  0  0  0  0  0
   19.7704   20.4780   20.6153 H   0  0  0  0  0  0  0  0  0  0  0  0
   19.3465   18.7982   20.8610 H   0  0  0  0  0  0  0  0  0  0  0  0
   17.8695   20.2280   21.6125 C   0  0  0  0  0  0  0  0  0  0  0  0
   17.5133   20.8000   20.7441 H   0  0  0  0  0  0  0  0  0  0  0  0
   17.8293   20.9195   22.4656 H   0  0  0  0  0  0  0  0  0  0  0  0
   16.8986   19.0441   21.8327 C   0  0  0  0  0  0  0  0  0  0  0  0
   17.1784   18.4355   22.6995 H   0  0  0  0  0  0  0  0  0  0  0  0
   16.8757   18.3877   20.9531 H   0  0  0  0  0  0  0  0  0  0  0  0
   15.8776   19.4109   22.0000 H   0  0  0  0  0  0  0  0  0  0  0  0
   23.0583   18.1218   25.7402 C   0  0  0  0  0  0  0  0  0  0  0  0
   22.5933   17.5067   26.5137 H   0  0  0  0  0  0  0  0  0  0  0  0
   24.0252   17.6963   25.4623 H   0  0  0  0  0  0  0  0  0  0  0  0
   23.1961   19.1401   26.1103 H   0  0  0  0  0  0  0  0  0  0  0  0
  1  2  1  0  0  0  0
  1  3  1  0  0  0  0
  1  4  1  0  0  0  0
  4  5  1  0  0  0  0
  4  6  1  0  0  0  0
  4  7  1  0  0  0  0
  7  8  1  0  0  0  0
  7  9  1  0  0  0  0
  7 10  1  0  0  0  0
 10 11  1  0  0  0  0
 10 12  1  0  0  0  0
 10 13  1  0  0  0  0
 13 14  1  0  0  0  0
 13 15  1  0  0  0  0
 13 16  1  0  0  0  0
 16 17  1  0  0  0  0
 16 18  1  0  0  0  0
 16 19  1  0  0  0  0
 19 20  1  0  0  0  0
 19 21  1  0  0  0  0
 19 22  1  0  0  0  0
  1 23  1  0  0  0  0
 23 24  1  0  0  0  0
 23 25  1  0  0  0  0
 23 26  1  0  0  0  0
M  END
> <VConfSearch Rank>
290

> <Conf_Id>
76

> <Delta U+W>
3.468

> <U+W>
25.310

> <U>
74.594

> <W>
-49.283

> <W(PB)>
-51.537

> <W(SA)>
2.253

> <Valence>
4.886

> <Coulomb>
69.332

> <VdW>
0.376

> <VdW6>
-7.329

> <VdW12>
7.705

> <Bond>
0.232

> <Angle>
1.251

> <Pdih>
3.403

> <Idih>
0.000

> <Tether>
0.000

$$$$
VeraChem MOL file


 26 25  0  0  0  0  0  0  0  0999 V2000     
   22.5006   17.6552   23.2962 N   0  3  0  0  0  0  0  0  0  0  0  0
   22.9344   18.5837   23.1755 H   0  0  0  0  0  0  0  0  0  0  0  0
   22.4812   17.2364   22.3533 H   0  0  0  0  0  0  0  0  0  0  0  0
   21.0907   17.8021   23.8323 C   0  0  0  0  0  0  0  0  0  0  0  0
   21.1549   18.2542   24.8252 H   0  0  0  0  0  0  0  0  0  0  0  0
   20.6658   16.8005   23.9368 H   0  0  0  0  0  0  0  0  0  0  0  0
   20.1825   18.6585   22.9314 C   0  0  0  0  0  0  0  0  0  0  0  0
   20.6285   19.6520   22.8111 H   0  0  0  0  0  0  0  0  0  0  0  0
   20.1358   18.2081   21.9310 H   0  0  0  0  0  0  0  0  0  0  0  0
   18.7534   18.7691   23.5154 C   0  0  0  0  0  0  0  0  0  0  0  0
   18.7877   19.1641   24.5402 H   0  0  0  0  0  0  0  0  0  0  0  0
   18.3384   17.7547   23.5955 H   0  0  0  0  0  0  0  0  0  0  0  0
   17.7940   19.6245   22.6467 C   0  0  0  0  0  0  0  0  0  0  0  0
   18.0781   19.5598   21.5873 H   0  0  0  0  0  0  0  0  0  0  0  0
   16.7899   19.1827   22.7105 H   0  0  0  0  0  0  0  0  0  0  0  0
   17.6773   21.1092   23.0776 C   0  0  0  0  0  0  0  0  0  0  0  0
   17.2914   21.1655   24.1051 H   0  0  0  0  0  0  0  0  0  0  0  0
   16.9239   21.5972   22.4435 H   0  0  0  0  0  0  0  0  0  0  0  0
   18.9962   21.9069   22.9815 C   0  0  0  0  0  0  0  0  0  0  0  0
   19.4433   21.8157   21.9832 H   0  0  0  0  0  0  0  0  0  0  0  0
   19.7253   21.5629   23.7253 H   0  0  0  0  0  0  0  0  0  0  0  0
   18.8141   22.9726   23.1714 H   0  0  0  0  0  0  0  0  0  0  0  0
   23.3284   16.7984   24.2439 C   0  0  0  0  0  0  0  0  0  0  0  0
   23.3621   17.2777   25.2248 H   0  0  0  0  0  0  0  0  0  0  0  0
   22.8689   15.8113   24.3299 H   0  0  0  0  0  0  0  0  0  0  0  0
   24.3411   16.7004   23.8463 H   0  0  0  0  0  0  0  0  0  0  0  0
  1  2  1  0  0  0  0
  1  3  1  0  0  0  0
  1  4  1  0  0  0  0
  4  5  1  0  0  0  0
  4  6  1  0  0  0  0
  4  7  1  0  0  0  0
  7  8  1  0  0  0  0
  7  9  1  0  0  0  0
  7 10  1  0  0  0  0
 10 11  1  0  0  0  0
 10 12  1  0  0  0  0
 10 13  1  0  0  0  0
 13 14  1  0  0  0  0
 13 15  1  0  0  0  0
 13 16  1  0  0  0  0
 16 17  1  0  0  0  0
 16 18  1  0  0  0  0
 16 19  1  0  0  0  0
 19 20  1  0  0  0  0
 19 21  1  0  0  0  0
 19 22  1  0  0  0  0
  1 23  1  0  0  0  0
 23 24  1  0  0  0  0
 23 25  1  0  0  0  0
 23 26  1  0  0  0  0
M  END
> <VConfSearch Rank>
291

> <Conf_Id>
123

> <Delta U+W>
3.101

> <U+W>
24.943

> <U>
74.070

> <W>
-49.127

> <W(PB)>
-51.421

> <W(SA)>
2.295

> <Valence>
4.690

> <Coulomb>
69.115

> <VdW>
0.266

> <VdW6>
-6.809

> <VdW12>
7.075

> <Bond>
0.212

> <Angle>
1.133

> <Pdih>
3.345

> <Idih>
0.000

> <Tether>
0.000

$$$$
VeraChem MOL file


 26 25  0  0  0  0  0  0  0  0999 V2000     
   19.3040   19.6220   25.7750 N   0  3  0  0  0  0  0  0  0  0  0  0
   20.1584   19.4703   26.3333 H   0  0  0  0  0  0  0  0  0  0  0  0
   18.9275   18.6812   25.5846 H   0  0  0  0  0  0  0  0  0  0  0  0
   19.6487   20.3183   24.4726 C   0  0  0  0  0  0  0  0  0  0  0  0
   20.0415   21.3073   24.7219 H   0  0  0  0  0  0  0  0  0  0  0  0
   18.7235   20.4516   23.9063 H   0  0  0  0  0  0  0  0  0  0  0  0
   20.6792   19.5621   23.6111 C   0  0  0  0  0  0  0  0  0  0  0  0
   20.9405   20.1953   22.7559 H   0  0  0  0  0  0  0  0  0  0  0  0
   21.6047   19.4253   24.1861 H   0  0  0  0  0  0  0  0  0  0  0  0
   20.1549   18.1879   23.1214 C   0  0  0  0  0  0  0  0  0  0  0  0
   19.1797   18.3041   22.6285 H   0  0  0  0  0  0  0  0  0  0  0  0
   19.9794   17.5486   23.9968 H   0  0  0  0  0  0  0  0  0  0  0  0
   21.1429   17.4534   22.1776 C   0  0  0  0  0  0  0  0  0  0  0  0
   22.1783   17.7334   22.4157 H   0  0  0  0  0  0  0  0  0  0  0  0
   21.0742   16.3758   22.3816 H   0  0  0  0  0  0  0  0  0  0  0  0
   20.8691   17.6589   20.6655 C   0  0  0  0  0  0  0  0  0  0  0  0
   19.8676   17.2803   20.4177 H   0  0  0  0  0  0  0  0  0  0  0  0
   21.5768   17.0402   20.0960 H   0  0  0  0  0  0  0  0  0  0  0  0
   20.9959   19.1222   20.1879 C   0  0  0  0  0  0  0  0  0  0  0  0
   21.9663   19.5494   20.4720 H   0  0  0  0  0  0  0  0  0  0  0  0
   20.2002   19.7495   20.6083 H   0  0  0  0  0  0  0  0  0  0  0  0
   20.9125   19.1772   19.0948 H   0  0  0  0  0  0  0  0  0  0  0  0
   18.2951   20.4526   26.5557 C   0  0  0  0  0  0  0  0  0  0  0  0
   17.3890   20.5723   25.9578 H   0  0  0  0  0  0  0  0  0  0  0  0
   18.0556   19.9401   27.4901 H   0  0  0  0  0  0  0  0  0  0  0  0
   18.7274   21.4319   26.7726 H   0  0  0  0  0  0  0  0  0  0  0  0
  1  2  1  0  0  0  0
  1  3  1  0  0  0  0
  1  4  1  0  0  0  0
  4  5  1  0  0  0  0
  4  6  1  0  0  0  0
  4  7  1  0  0  0  0
  7  8  1  0  0  0  0
  7  9  1  0  0  0  0
  7 10  1  0  0  0  0
 10 11  1  0  0  0  0
 10 12  1  0  0  0  0
 10 13  1  0  0  0  0
 13 14  1  0  0  0  0
 13 15  1  0  0  0  0
 13 16  1  0  0  0  0
 16 17  1  0  0  0  0
 16 18  1  0  0  0  0
 16 19  1  0  0  0  0
 19 20  1  0  0  0  0
 19 21  1  0  0  0  0
 19 22  1  0  0  0  0
  1 23  1  0  0  0  0
 23 24  1  0  0  0  0
 23 25  1  0  0  0  0
 23 26  1  0  0  0  0
M  END
> <VConfSearch Rank>
292

> <Conf_Id>
111

> <Delta U+W>
3.383

> <U+W>
25.225

> <U>
74.516

> <W>
-49.292

> <W(PB)>
-51.558

> <W(SA)>
2.266

> <Valence>
4.842

> <Coulomb>
69.333

> <VdW>
0.342

> <VdW6>
-7.369

> <VdW12>
7.711

> <Bond>
0.232

> <Angle>
1.153

> <Pdih>
3.457

> <Idih>
0.000

> <Tether>
0.000

$$$$
VeraChem MOL file


 26 25  0  0  0  0  0  0  0  0999 V2000     
   19.2176   17.4760   21.7268 N   0  3  0  0  0  0  0  0  0  0  0  0
   18.9464   16.5730   22.1460 H   0  0  0  0  0  0  0  0  0  0  0  0
   20.2143   17.6012   21.9593 H   0  0  0  0  0  0  0  0  0  0  0  0
   18.3996   18.5991   22.3337 C   0  0  0  0  0  0  0  0  0  0  0  0
   17.3524   18.4232   22.0748 H   0  0  0  0  0  0  0  0  0  0  0  0
   18.7119   19.5348   21.8641 H   0  0  0  0  0  0  0  0  0  0  0  0
   18.5357   18.7129   23.8663 C   0  0  0  0  0  0  0  0  0  0  0  0
   17.8762   19.5170   24.2190 H   0  0  0  0  0  0  0  0  0  0  0  0
   18.1641   17.7887   24.3285 H   0  0  0  0  0  0  0  0  0  0  0  0
   19.9803   18.9854   24.3573 C   0  0  0  0  0  0  0  0  0  0  0  0
   20.6329   18.1451   24.0860 H   0  0  0  0  0  0  0  0  0  0  0  0
   19.9654   19.0179   25.4544 H   0  0  0  0  0  0  0  0  0  0  0  0
   20.5727   20.3082   23.8076 C   0  0  0  0  0  0  0  0  0  0  0  0
   20.5663   20.2868   22.7099 H   0  0  0  0  0  0  0  0  0  0  0  0
   19.9334   21.1514   24.1037 H   0  0  0  0  0  0  0  0  0  0  0  0
   22.0250   20.5736   24.2737 C   0  0  0  0  0  0  0  0  0  0  0  0
   22.4053   21.4621   23.7505 H   0  0  0  0  0  0  0  0  0  0  0  0
   22.6719   19.7388   23.9698 H   0  0  0  0  0  0  0  0  0  0  0  0
   22.1524   20.8027   25.7971 C   0  0  0  0  0  0  0  0  0  0  0  0
   21.9042   19.8972   26.3644 H   0  0  0  0  0  0  0  0  0  0  0  0
   21.4900   21.6114   26.1319 H   0  0  0  0  0  0  0  0  0  0  0  0
   23.1812   21.0825   26.0584 H   0  0  0  0  0  0  0  0  0  0  0  0
   19.0201   17.4471   20.2178 C   0  0  0  0  0  0  0  0  0  0  0  0
   19.6151   16.6350   19.7940 H   0  0  0  0  0  0  0  0  0  0  0  0
   17.9629   17.2836   19.9972 H   0  0  0  0  0  0  0  0  0  0  0  0
   19.3432   18.4008   19.7949 H   0  0  0  0  0  0  0  0  0  0  0  0
  1  2  1  0  0  0  0
  1  3  1  0  0  0  0
  1  4  1  0  0  0  0
  4  5  1  0  0  0  0
  4  6  1  0  0  0  0
  4  7  1  0  0  0  0
  7  8  1  0  0  0  0
  7  9  1  0  0  0  0
  7 10  1  0  0  0  0
 10 11  1  0  0  0  0
 10 12  1  0  0  0  0
 10 13  1  0  0  0  0
 13 14  1  0  0  0  0
 13 15  1  0  0  0  0
 13 16  1  0  0  0  0
 16 17  1  0  0  0  0
 16 18  1  0  0  0  0
 16 19  1  0  0  0  0
 19 20  1  0  0  0  0
 19 21  1  0  0  0  0
 19 22  1  0  0  0  0
  1 23  1  0  0  0  0
 23 24  1  0  0  0  0
 23 25  1  0  0  0  0
 23 26  1  0  0  0  0
M  END
> <VConfSearch Rank>
293

> <Conf_Id>
126

> <Delta U+W>
1.519

> <U+W>
23.361

> <U>
72.579

> <W>
-49.218

> <W(PB)>
-51.496

> <W(SA)>
2.279

> <Valence>
2.678

> <Coulomb>
69.622

> <VdW>
0.279

> <VdW6>
-7.328

> <VdW12>
7.608

> <Bond>
0.212

> <Angle>
0.911

> <Pdih>
1.555

> <Idih>
0.000

> <Tether>
0.000

$$$$
VeraChem MOL file


 26 25  0  0  0  0  0  0  0  0999 V2000     
   21.4788   20.0038   25.0007 N   0  3  0  0  0  0  0  0  0  0  0  0
   21.2336   19.0061   24.9144 H   0  0  0  0  0  0  0  0  0  0  0  0
   20.9880   20.3380   25.8445 H   0  0  0  0  0  0  0  0  0  0  0  0
   20.9949   20.7632   23.7809 C   0  0  0  0  0  0  0  0  0  0  0  0
   21.5378   20.3850   22.9116 H   0  0  0  0  0  0  0  0  0  0  0  0
   21.2632   21.8139   23.9171 H   0  0  0  0  0  0  0  0  0  0  0  0
   19.4755   20.6505   23.5376 C   0  0  0  0  0  0  0  0  0  0  0  0
   18.9424   21.0870   24.3926 H   0  0  0  0  0  0  0  0  0  0  0  0
   19.2122   21.2662   22.6673 H   0  0  0  0  0  0  0  0  0  0  0  0
   18.9746   19.2018   23.3081 C   0  0  0  0  0  0  0  0  0  0  0  0
   17.8854   19.2362   23.1761 H   0  0  0  0  0  0  0  0  0  0  0  0
   19.1538   18.5967   24.2067 H   0  0  0  0  0  0  0  0  0  0  0  0
   19.6245   18.5188   22.0776 C   0  0  0  0  0  0  0  0  0  0  0  0
   19.4203   19.1108   21.1748 H   0  0  0  0  0  0  0  0  0  0  0  0
   20.7158   18.5051   22.1973 H   0  0  0  0  0  0  0  0  0  0  0  0
   19.1479   17.0623   21.8581 C   0  0  0  0  0  0  0  0  0  0  0  0
   19.3606   16.4620   22.7538 H   0  0  0  0  0  0  0  0  0  0  0  0
   19.7380   16.6181   21.0443 H   0  0  0  0  0  0  0  0  0  0  0  0
   17.6480   16.9507   21.5011 C   0  0  0  0  0  0  0  0  0  0  0  0
   17.4026   17.5687   20.6277 H   0  0  0  0  0  0  0  0  0  0  0  0
   17.0092   17.2648   22.3357 H   0  0  0  0  0  0  0  0  0  0  0  0
   17.3871   15.9120   21.2605 H   0  0  0  0  0  0  0  0  0  0  0  0
   22.9838   20.1731   25.1539 C   0  0  0  0  0  0  0  0  0  0  0  0
   23.4816   19.7838   24.2631 H   0  0  0  0  0  0  0  0  0  0  0  0
   23.2154   21.2337   25.2736 H   0  0  0  0  0  0  0  0  0  0  0  0
   23.3187   19.6207   26.0348 H   0  0  0  0  0  0  0  0  0  0  0  0
  1  2  1  0  0  0  0
  1  3  1  0  0  0  0
  1  4  1  0  0  0  0
  4  5  1  0  0  0  0
  4  6  1  0  0  0  0
  4  7  1  0  0  0  0
  7  8  1  0  0  0  0
  7  9  1  0  0  0  0
  7 10  1  0  0  0  0
 10 11  1  0  0  0  0
 10 12  1  0  0  0  0
 10 13  1  0  0  0  0
 13 14  1  0  0  0  0
 13 15  1  0  0  0  0
 13 16  1  0  0  0  0
 16 17  1  0  0  0  0
 16 18  1  0  0  0  0
 16 19  1  0  0  0  0
 19 20  1  0  0  0  0
 19 21  1  0  0  0  0
 19 22  1  0  0  0  0
  1 23  1  0  0  0  0
 23 24  1  0  0  0  0
 23 25  1  0  0  0  0
 23 26  1  0  0  0  0
M  END
> <VConfSearch Rank>
294

> <Conf_Id>
134

> <Delta U+W>
1.464

> <U+W>
23.306

> <U>
72.579

> <W>
-49.273

> <W(PB)>
-51.540

> <W(SA)>
2.267

> <Valence>
2.677

> <Coulomb>
69.622

> <VdW>
0.280

> <VdW6>
-7.328

> <VdW12>
7.608

> <Bond>
0.212

> <Angle>
0.911

> <Pdih>
1.555

> <Idih>
0.000

> <Tether>
0.000

$$$$
VeraChem MOL file


 26 25  0  0  0  0  0  0  0  0999 V2000     
   19.6500   17.7060   20.9352 N   0  3  0  0  0  0  0  0  0  0  0  0
   20.5894   17.3038   21.0783 H   0  0  0  0  0  0  0  0  0  0  0  0
   19.7770   18.4613   20.2437 H   0  0  0  0  0  0  0  0  0  0  0  0
   19.1198   18.2728   22.2369 C   0  0  0  0  0  0  0  0  0  0  0  0
   19.0075   17.4453   22.9419 H   0  0  0  0  0  0  0  0  0  0  0  0
   18.1309   18.6946   22.0406 H   0  0  0  0  0  0  0  0  0  0  0  0
   20.0317   19.3526   22.8472 C   0  0  0  0  0  0  0  0  0  0  0  0
   21.0261   18.9230   23.0227 H   0  0  0  0  0  0  0  0  0  0  0  0
   20.1549   20.1748   22.1298 H   0  0  0  0  0  0  0  0  0  0  0  0
   19.4484   19.8997   24.1712 C   0  0  0  0  0  0  0  0  0  0  0  0
   19.3611   19.0856   24.9031 H   0  0  0  0  0  0  0  0  0  0  0  0
   18.4237   20.2530   23.9903 H   0  0  0  0  0  0  0  0  0  0  0  0
   20.2686   21.0693   24.7748 C   0  0  0  0  0  0  0  0  0  0  0  0
   20.2500   21.9168   24.0759 H   0  0  0  0  0  0  0  0  0  0  0  0
   19.7636   21.4204   25.6853 H   0  0  0  0  0  0  0  0  0  0  0  0
   21.7436   20.7370   25.1172 C   0  0  0  0  0  0  0  0  0  0  0  0
   22.2168   21.6373   25.5336 H   0  0  0  0  0  0  0  0  0  0  0  0
   22.3026   20.5016   24.2017 H   0  0  0  0  0  0  0  0  0  0  0  0
   21.8944   19.5815   26.1326 C   0  0  0  0  0  0  0  0  0  0  0  0
   21.3278   19.7859   27.0502 H   0  0  0  0  0  0  0  0  0  0  0  0
   22.9479   19.4492   26.4110 H   0  0  0  0  0  0  0  0  0  0  0  0
   21.5416   18.6303   25.7150 H   0  0  0  0  0  0  0  0  0  0  0  0
   18.6923   16.6494   20.4021 C   0  0  0  0  0  0  0  0  0  0  0  0
   17.7154   17.1056   20.2273 H   0  0  0  0  0  0  0  0  0  0  0  0
   19.0857   16.2496   19.4648 H   0  0  0  0  0  0  0  0  0  0  0  0
   18.5997   15.8457   21.1358 H   0  0  0  0  0  0  0  0  0  0  0  0
  1  2  1  0  0  0  0
  1  3  1  0  0  0  0
  1  4  1  0  0  0  0
  4  5  1  0  0  0  0
  4  6  1  0  0  0  0
  4  7  1  0  0  0  0
  7  8  1  0  0  0  0
  7  9  1  0  0  0  0
  7 10  1  0  0  0  0
 10 11  1  0  0  0  0
 10 12  1  0  0  0  0
 10 13  1  0  0  0  0
 13 14  1  0  0  0  0
 13 15  1  0  0  0  0
 13 16  1  0  0  0  0
 16 17  1  0  0  0  0
 16 18  1  0  0  0  0
 16 19  1  0  0  0  0
 19 20  1  0  0  0  0
 19 21  1  0  0  0  0
 19 22  1  0  0  0  0
  1 23  1  0  0  0  0
 23 24  1  0  0  0  0
 23 25  1  0  0  0  0
 23 26  1  0  0  0  0
M  END
> <VConfSearch Rank>
295

> <Conf_Id>
30

> <Delta U+W>
0.910

> <U+W>
22.752

> <U>
71.870

> <W>
-49.118

> <W(PB)>
-51.409

> <W(SA)>
2.290

> <Valence>
2.682

> <Coulomb>
68.933

> <VdW>
0.255

> <VdW6>
-6.833

> <VdW12>
7.088

> <Bond>
0.205

> <Angle>
1.003

> <Pdih>
1.473

> <Idih>
0.000

> <Tether>
0.000

$$$$
VeraChem MOL file


 26 25  0  0  0  0  0  0  0  0999 V2000     
   19.7171   16.3493   22.7179 N   0  3  0  0  0  0  0  0  0  0  0  0
   18.9902   16.0664   23.3935 H   0  0  0  0  0  0  0  0  0  0  0  0
   20.6138   16.2357   23.2156 H   0  0  0  0  0  0  0  0  0  0  0  0
   19.5217   17.7974   22.3157 C   0  0  0  0  0  0  0  0  0  0  0  0
   18.5606   17.8755   21.8011 H   0  0  0  0  0  0  0  0  0  0  0  0
   20.3131   18.0587   21.6086 H   0  0  0  0  0  0  0  0  0  0  0  0
   19.5512   18.7700   23.5085 C   0  0  0  0  0  0  0  0  0  0  0  0
   18.7651   18.4946   24.2240 H   0  0  0  0  0  0  0  0  0  0  0  0
   20.5127   18.6696   24.0278 H   0  0  0  0  0  0  0  0  0  0  0  0
   19.3469   20.2324   23.0479 C   0  0  0  0  0  0  0  0  0  0  0  0
   18.4185   20.2956   22.4633 H   0  0  0  0  0  0  0  0  0  0  0  0
   20.1544   20.5222   22.3623 H   0  0  0  0  0  0  0  0  0  0  0  0
   19.2565   21.2455   24.2186 C   0  0  0  0  0  0  0  0  0  0  0  0
   19.0716   22.2463   23.8046 H   0  0  0  0  0  0  0  0  0  0  0  0
   18.3756   21.0068   24.8304 H   0  0  0  0  0  0  0  0  0  0  0  0
   20.5021   21.3071   25.1395 C   0  0  0  0  0  0  0  0  0  0  0  0
   20.6361   20.3505   25.6620 H   0  0  0  0  0  0  0  0  0  0  0  0
   20.3193   22.0540   25.9247 H   0  0  0  0  0  0  0  0  0  0  0  0
   21.8024   21.6800   24.3917 C   0  0  0  0  0  0  0  0  0  0  0  0
   22.0919   20.9014   23.6750 H   0  0  0  0  0  0  0  0  0  0  0  0
   22.6320   21.8014   25.1001 H   0  0  0  0  0  0  0  0  0  0  0  0
   21.6863   22.6250   23.8454 H   0  0  0  0  0  0  0  0  0  0  0  0
   19.6747   15.4587   21.4839 C   0  0  0  0  0  0  0  0  0  0  0  0
   19.8165   14.4190   21.7874 H   0  0  0  0  0  0  0  0  0  0  0  0
   18.7054   15.5708   20.9932 H   0  0  0  0  0  0  0  0  0  0  0  0
   20.4726   15.7552   20.7994 H   0  0  0  0  0  0  0  0  0  0  0  0
  1  2  1  0  0  0  0
  1  3  1  0  0  0  0
  1  4  1  0  0  0  0
  4  5  1  0  0  0  0
  4  6  1  0  0  0  0
  4  7  1  0  0  0  0
  7  8  1  0  0  0  0
  7  9  1  0  0  0  0
  7 10  1  0  0  0  0
 10 11  1  0  0  0  0
 10 12  1  0  0  0  0
 10 13  1  0  0  0  0
 13 14  1  0  0  0  0
 13 15  1  0  0  0  0
 13 16  1  0  0  0  0
 16 17  1  0  0  0  0
 16 18  1  0  0  0  0
 16 19  1  0  0  0  0
 19 20  1  0  0  0  0
 19 21  1  0  0  0  0
 19 22  1  0  0  0  0
  1 23  1  0  0  0  0
 23 24  1  0  0  0  0
 23 25  1  0  0  0  0
 23 26  1  0  0  0  0
M  END
> <VConfSearch Rank>
296

> <Conf_Id>
29

> <Delta U+W>
0.886

> <U+W>
22.729

> <U>
71.870

> <W>
-49.141

> <W(PB)>
-51.404

> <W(SA)>
2.262

> <Valence>
2.682

> <Coulomb>
68.933

> <VdW>
0.255

> <VdW6>
-6.833

> <VdW12>
7.088

> <Bond>
0.205

> <Angle>
1.003

> <Pdih>
1.473

> <Idih>
0.000

> <Tether>
0.000

$$$$
VeraChem MOL file


 26 25  0  0  0  0  0  0  0  0999 V2000     
   21.9931   19.7301   24.8887 N   0  3  0  0  0  0  0  0  0  0  0  0
   21.7910   19.7184   25.9005 H   0  0  0  0  0  0  0  0  0  0  0  0
   21.8141   20.6996   24.5841 H   0  0  0  0  0  0  0  0  0  0  0  0
   21.0704   18.7739   24.1603 C   0  0  0  0  0  0  0  0  0  0  0  0
   21.2823   17.7636   24.5194 H   0  0  0  0  0  0  0  0  0  0  0  0
   21.3151   18.8201   23.0964 H   0  0  0  0  0  0  0  0  0  0  0  0
   19.5773   19.0937   24.3640 C   0  0  0  0  0  0  0  0  0  0  0  0
   19.3499   19.0798   25.4381 H   0  0  0  0  0  0  0  0  0  0  0  0
   19.3666   20.1135   24.0176 H   0  0  0  0  0  0  0  0  0  0  0  0
   18.6472   18.0867   23.6428 C   0  0  0  0  0  0  0  0  0  0  0  0
   17.6017   18.3575   23.8417 H   0  0  0  0  0  0  0  0  0  0  0  0
   18.7853   17.0928   24.0905 H   0  0  0  0  0  0  0  0  0  0  0  0
   18.8718   17.9746   22.1104 C   0  0  0  0  0  0  0  0  0  0  0  0
   19.8631   17.5428   21.9175 H   0  0  0  0  0  0  0  0  0  0  0  0
   18.1517   17.2519   21.7026 H   0  0  0  0  0  0  0  0  0  0  0  0
   18.7433   19.3052   21.3258 C   0  0  0  0  0  0  0  0  0  0  0  0
   18.9334   19.1042   20.2623 H   0  0  0  0  0  0  0  0  0  0  0  0
   19.5239   20.0099   21.6422 H   0  0  0  0  0  0  0  0  0  0  0  0
   17.3540   19.9678   21.4660 C   0  0  0  0  0  0  0  0  0  0  0  0
   17.2858   20.8574   20.8267 H   0  0  0  0  0  0  0  0  0  0  0  0
   17.1624   20.2871   22.4979 H   0  0  0  0  0  0  0  0  0  0  0  0
   16.5554   19.2770   21.1660 H   0  0  0  0  0  0  0  0  0  0  0  0
   23.4438   19.3482   24.6293 C   0  0  0  0  0  0  0  0  0  0  0  0
   24.0977   20.0441   25.1595 H   0  0  0  0  0  0  0  0  0  0  0  0
   23.6174   18.3318   24.9895 H   0  0  0  0  0  0  0  0  0  0  0  0
   23.6425   19.3998   23.5565 H   0  0  0  0  0  0  0  0  0  0  0  0
  1  2  1  0  0  0  0
  1  3  1  0  0  0  0
  1  4  1  0  0  0  0
  4  5  1  0  0  0  0
  4  6  1  0  0  0  0
  4  7  1  0  0  0  0
  7  8  1  0  0  0  0
  7  9  1  0  0  0  0
  7 10  1  0  0  0  0
 10 11  1  0  0  0  0
 10 12  1  0  0  0  0
 10 13  1  0  0  0  0
 13 14  1  0  0  0  0
 13 15  1  0  0  0  0
 13 16  1  0  0  0  0
 16 17  1  0  0  0  0
 16 18  1  0  0  0  0
 16 19  1  0  0  0  0
 19 20  1  0  0  0  0
 19 21  1  0  0  0  0
 19 22  1  0  0  0  0
  1 23  1  0  0  0  0
 23 24  1  0  0  0  0
 23 25  1  0  0  0  0
 23 26  1  0  0  0  0
M  END
> <VConfSearch Rank>
297

> <Conf_Id>
82

> <Delta U+W>
1.026

> <U+W>
22.868

> <U>
72.455

> <W>
-49.586

> <W(PB)>
-51.821

> <W(SA)>
2.234

> <Valence>
2.908

> <Coulomb>
69.435

> <VdW>
0.112

> <VdW6>
-7.765

> <VdW12>
7.877

> <Bond>
0.233

> <Angle>
1.170

> <Pdih>
1.506

> <Idih>
0.000

> <Tether>
0.000

$$$$
VeraChem MOL file


 26 25  0  0  0  0  0  0  0  0999 V2000     
   18.4948   17.3868   22.0984 N   0  3  0  0  0  0  0  0  0  0  0  0
   18.3125   17.0137   23.0429 H   0  0  0  0  0  0  0  0  0  0  0  0
   18.9509   16.6181   21.5827 H   0  0  0  0  0  0  0  0  0  0  0  0
   19.4204   18.5839   22.1781 C   0  0  0  0  0  0  0  0  0  0  0  0
   18.9018   19.3698   22.7325 H   0  0  0  0  0  0  0  0  0  0  0  0
   19.5979   18.9397   21.1602 H   0  0  0  0  0  0  0  0  0  0  0  0
   20.7659   18.2697   22.8592 C   0  0  0  0  0  0  0  0  0  0  0  0
   20.5880   17.8980   23.8764 H   0  0  0  0  0  0  0  0  0  0  0  0
   21.2624   17.4549   22.3157 H   0  0  0  0  0  0  0  0  0  0  0  0
   21.7142   19.4937   22.9011 C   0  0  0  0  0  0  0  0  0  0  0  0
   21.9789   19.7728   21.8719 H   0  0  0  0  0  0  0  0  0  0  0  0
   22.6582   19.2003   23.3796 H   0  0  0  0  0  0  0  0  0  0  0  0
   21.1346   20.7426   23.6189 C   0  0  0  0  0  0  0  0  0  0  0  0
   21.8928   21.5377   23.6057 H   0  0  0  0  0  0  0  0  0  0  0  0
   20.2869   21.1350   23.0412 H   0  0  0  0  0  0  0  0  0  0  0  0
   20.6794   20.5104   25.0823 C   0  0  0  0  0  0  0  0  0  0  0  0
   19.8463   19.7955   25.1122 H   0  0  0  0  0  0  0  0  0  0  0  0
   20.2794   21.4543   25.4784 H   0  0  0  0  0  0  0  0  0  0  0  0
   21.8174   20.0249   26.0086 C   0  0  0  0  0  0  0  0  0  0  0  0
   22.1777   19.0307   25.7167 H   0  0  0  0  0  0  0  0  0  0  0  0
   21.4663   19.9577   27.0465 H   0  0  0  0  0  0  0  0  0  0  0  0
   22.6675   20.7190   25.9861 H   0  0  0  0  0  0  0  0  0  0  0  0
   17.1910   17.7848   21.4207 C   0  0  0  0  0  0  0  0  0  0  0  0
   17.4059   18.1448   20.4121 H   0  0  0  0  0  0  0  0  0  0  0  0
   16.5337   16.9139   21.3692 H   0  0  0  0  0  0  0  0  0  0  0  0
   16.7110   18.5754   22.0016 H   0  0  0  0  0  0  0  0  0  0  0  0
  1  2  1  0  0  0  0
  1  3  1  0  0  0  0
  1  4  1  0  0  0  0
  4  5  1  0  0  0  0
  4  6  1  0  0  0  0
  4  7  1  0  0  0  0
  7  8  1  0  0  0  0
  7  9  1  0  0  0  0
  7 10  1  0  0  0  0
 10 11  1  0  0  0  0
 10 12  1  0  0  0  0
 10 13  1  0  0  0  0
 13 14  1  0  0  0  0
 13 15  1  0  0  0  0
 13 16  1  0  0  0  0
 16 17  1  0  0  0  0
 16 18  1  0  0  0  0
 16 19  1  0  0  0  0
 19 20  1  0  0  0  0
 19 21  1  0  0  0  0
 19 22  1  0  0  0  0
  1 23  1  0  0  0  0
 23 24  1  0  0  0  0
 23 25  1  0  0  0  0
 23 26  1  0  0  0  0
M  END
> <VConfSearch Rank>
298

> <Conf_Id>
71

> <Delta U+W>
1.096

> <U+W>
22.938

> <U>
72.455

> <W>
-49.517

> <W(PB)>
-51.795

> <W(SA)>
2.278

> <Valence>
2.908

> <Coulomb>
69.435

> <VdW>
0.112

> <VdW6>
-7.766

> <VdW12>
7.877

> <Bond>
0.233

> <Angle>
1.170

> <Pdih>
1.506

> <Idih>
0.000

> <Tether>
0.000

$$$$
VeraChem MOL file


 26 25  0  0  0  0  0  0  0  0999 V2000     
   20.9672   21.2199   24.1049 N   0  3  0  0  0  0  0  0  0  0  0  0
   20.3273   21.1629   23.2987 H   0  0  0  0  0  0  0  0  0  0  0  0
   21.7109   21.8741   23.8140 H   0  0  0  0  0  0  0  0  0  0  0  0
   21.5711   19.8531   24.3860 C   0  0  0  0  0  0  0  0  0  0  0  0
   22.2258   19.9521   25.2555 H   0  0  0  0  0  0  0  0  0  0  0  0
   22.1936   19.5884   23.5280 H   0  0  0  0  0  0  0  0  0  0  0  0
   20.5475   18.7221   24.6359 C   0  0  0  0  0  0  0  0  0  0  0  0
   21.0951   17.7881   24.8184 H   0  0  0  0  0  0  0  0  0  0  0  0
   19.9931   18.9315   25.5598 H   0  0  0  0  0  0  0  0  0  0  0  0
   19.5434   18.5066   23.4754 C   0  0  0  0  0  0  0  0  0  0  0  0
   18.9347   19.4099   23.3365 H   0  0  0  0  0  0  0  0  0  0  0  0
   18.8467   17.7119   23.7720 H   0  0  0  0  0  0  0  0  0  0  0  0
   20.2283   18.1230   22.1388 C   0  0  0  0  0  0  0  0  0  0  0  0
   20.9477   18.9026   21.8559 H   0  0  0  0  0  0  0  0  0  0  0  0
   20.8100   17.2005   22.2726 H   0  0  0  0  0  0  0  0  0  0  0  0
   19.2332   17.9398   20.9671 C   0  0  0  0  0  0  0  0  0  0  0  0
   19.8048   17.7840   20.0414 H   0  0  0  0  0  0  0  0  0  0  0  0
   18.6573   18.8642   20.8198 H   0  0  0  0  0  0  0  0  0  0  0  0
   18.2660   16.7494   21.1591 C   0  0  0  0  0  0  0  0  0  0  0  0
   17.5827   16.9154   22.0010 H   0  0  0  0  0  0  0  0  0  0  0  0
   18.8172   15.8177   21.3411 H   0  0  0  0  0  0  0  0  0  0  0  0
   17.6517   16.6052   20.2608 H   0  0  0  0  0  0  0  0  0  0  0  0
   20.2452   21.7662   25.3311 C   0  0  0  0  0  0  0  0  0  0  0  0
   19.8520   22.7590   25.1015 H   0  0  0  0  0  0  0  0  0  0  0  0
   19.4233   21.0972   25.5937 H   0  0  0  0  0  0  0  0  0  0  0  0
   20.9502   21.8319   26.1626 H   0  0  0  0  0  0  0  0  0  0  0  0
  1  2  1  0  0  0  0
  1  3  1  0  0  0  0
  1  4  1  0  0  0  0
  4  5  1  0  0  0  0
  4  6  1  0  0  0  0
  4  7  1  0  0  0  0
  7  8  1  0  0  0  0
  7  9  1  0  0  0  0
  7 10  1  0  0  0  0
 10 11  1  0  0  0  0
 10 12  1  0  0  0  0
 10 13  1  0  0  0  0
 13 14  1  0  0  0  0
 13 15  1  0  0  0  0
 13 16  1  0  0  0  0
 16 17  1  0  0  0  0
 16 18  1  0  0  0  0
 16 19  1  0  0  0  0
 19 20  1  0  0  0  0
 19 21  1  0  0  0  0
 19 22  1  0  0  0  0
  1 23  1  0  0  0  0
 23 24  1  0  0  0  0
 23 25  1  0  0  0  0
 23 26  1  0  0  0  0
M  END
> <VConfSearch Rank>
299

> <Conf_Id>
84

> <Delta U+W>
1.456

> <U+W>
23.298

> <U>
73.042

> <W>
-49.744

> <W(PB)>
-51.966

> <W(SA)>
2.222

> <Valence>
2.938

> <Coulomb>
69.625

> <VdW>
0.478

> <VdW6>
-8.182

> <VdW12>
8.660

> <Bond>
0.253

> <Angle>
1.038

> <Pdih>
1.647

> <Idih>
0.000

> <Tether>
0.000

$$$$
VeraChem MOL file


 26 25  0  0  0  0  0  0  0  0999 V2000     
   19.5111   21.0786   24.5326 N   0  3  0  0  0  0  0  0  0  0  0  0
   19.9735   21.0714   23.6111 H   0  0  0  0  0  0  0  0  0  0  0  0
   20.1885   21.5116   25.1793 H   0  0  0  0  0  0  0  0  0  0  0  0
   19.2064   19.6593   24.9702 C   0  0  0  0  0  0  0  0  0  0  0  0
   18.4855   19.2373   24.2660 H   0  0  0  0  0  0  0  0  0  0  0  0
   18.7305   19.7106   25.9528 H   0  0  0  0  0  0  0  0  0  0  0  0
   20.4504   18.7503   25.0505 C   0  0  0  0  0  0  0  0  0  0  0  0
   21.1441   19.1554   25.7991 H   0  0  0  0  0  0  0  0  0  0  0  0
   20.1415   17.7644   25.4224 H   0  0  0  0  0  0  0  0  0  0  0  0
   21.1945   18.5772   23.7023 C   0  0  0  0  0  0  0  0  0  0  0  0
   22.0656   17.9277   23.8657 H   0  0  0  0  0  0  0  0  0  0  0  0
   21.5948   19.5440   23.3689 H   0  0  0  0  0  0  0  0  0  0  0  0
   20.3079   17.9661   22.5904 C   0  0  0  0  0  0  0  0  0  0  0  0
   19.8905   17.0108   22.9376 H   0  0  0  0  0  0  0  0  0  0  0  0
   19.4566   18.6276   22.3813 H   0  0  0  0  0  0  0  0  0  0  0  0
   21.1015   17.7360   21.2850 C   0  0  0  0  0  0  0  0  0  0  0  0
   21.9509   17.0662   21.4797 H   0  0  0  0  0  0  0  0  0  0  0  0
   21.5233   18.6883   20.9339 H   0  0  0  0  0  0  0  0  0  0  0  0
   20.2155   17.1291   20.1762 C   0  0  0  0  0  0  0  0  0  0  0  0
   19.8058   16.1585   20.4850 H   0  0  0  0  0  0  0  0  0  0  0  0
   20.7964   16.9724   19.2580 H   0  0  0  0  0  0  0  0  0  0  0  0
   19.3755   17.7931   19.9339 H   0  0  0  0  0  0  0  0  0  0  0  0
   18.2258   21.8924   24.4794 C   0  0  0  0  0  0  0  0  0  0  0  0
   17.7710   21.9104   25.4723 H   0  0  0  0  0  0  0  0  0  0  0  0
   18.4595   22.9111   24.1622 H   0  0  0  0  0  0  0  0  0  0  0  0
   17.5387   21.4323   23.7659 H   0  0  0  0  0  0  0  0  0  0  0  0
  1  2  1  0  0  0  0
  1  3  1  0  0  0  0
  1  4  1  0  0  0  0
  4  5  1  0  0  0  0
  4  6  1  0  0  0  0
  4  7  1  0  0  0  0
  7  8  1  0  0  0  0
  7  9  1  0  0  0  0
  7 10  1  0  0  0  0
 10 11  1  0  0  0  0
 10 12  1  0  0  0  0
 10 13  1  0  0  0  0
 13 14  1  0  0  0  0
 13 15  1  0  0  0  0
 13 16  1  0  0  0  0
 16 17  1  0  0  0  0
 16 18  1  0  0  0  0
 16 19  1  0  0  0  0
 19 20  1  0  0  0  0
 19 21  1  0  0  0  0
 19 22  1  0  0  0  0
  1 23  1  0  0  0  0
 23 24  1  0  0  0  0
 23 25  1  0  0  0  0
 23 26  1  0  0  0  0
M  END
> <VConfSearch Rank>
300

> <Conf_Id>
73

> <Delta U+W>
0.884

> <U+W>
22.726

> <U>
71.905

> <W>
-49.179

> <W(PB)>
-51.494

> <W(SA)>
2.315

> <Valence>
2.125

> <Coulomb>
69.686

> <VdW>
0.093

> <VdW6>
-6.766

> <VdW12>
6.859

> <Bond>
0.169

> <Angle>
0.621

> <Pdih>
1.336

> <Idih>
0.000

> <Tether>
0.000

$$$$
VeraChem MOL file


 26 25  0  0  0  0  0  0  0  0999 V2000     
   22.1477   18.9395   25.7429 N   0  3  0  0  0  0  0  0  0  0  0  0
   22.8905   19.4836   25.2769 H   0  0  0  0  0  0  0  0  0  0  0  0
   22.4047   17.9497   25.6045 H   0  0  0  0  0  0  0  0  0  0  0  0
   20.8065   19.2266   25.0982 C   0  0  0  0  0  0  0  0  0  0  0  0
   20.5762   20.2828   25.2595 H   0  0  0  0  0  0  0  0  0  0  0  0
   20.0517   18.6270   25.6133 H   0  0  0  0  0  0  0  0  0  0  0  0
   20.7762   18.9142   23.5910 C   0  0  0  0  0  0  0  0  0  0  0  0
   21.5470   19.5064   23.0799 H   0  0  0  0  0  0  0  0  0  0  0  0
   21.0242   17.8562   23.4325 H   0  0  0  0  0  0  0  0  0  0  0  0
   19.3920   19.2217   22.9778 C   0  0  0  0  0  0  0  0  0  0  0  0
   19.1451   20.2797   23.1433 H   0  0  0  0  0  0  0  0  0  0  0  0
   18.6229   18.6316   23.4956 H   0  0  0  0  0  0  0  0  0  0  0  0
   19.3496   18.9115   21.4641 C   0  0  0  0  0  0  0  0  0  0  0  0
   20.1184   19.5015   20.9462 H   0  0  0  0  0  0  0  0  0  0  0  0
   19.5963   17.8536   21.2985 H   0  0  0  0  0  0  0  0  0  0  0  0
   17.9651   19.2191   20.8511 C   0  0  0  0  0  0  0  0  0  0  0  0
   17.7146   20.2771   21.0120 H   0  0  0  0  0  0  0  0  0  0  0  0
   17.1925   18.6292   21.3642 H   0  0  0  0  0  0  0  0  0  0  0  0
   17.9265   18.9082   19.3396 C   0  0  0  0  0  0  0  0  0  0  0  0
   16.9361   19.1328   18.9227 H   0  0  0  0  0  0  0  0  0  0  0  0
   18.1395   17.8483   19.1487 H   0  0  0  0  0  0  0  0  0  0  0  0
   18.6656   19.5090   18.7938 H   0  0  0  0  0  0  0  0  0  0  0  0
   22.0915   19.2743   27.2270 C   0  0  0  0  0  0  0  0  0  0  0  0
   21.3222   18.6632   27.7042 H   0  0  0  0  0  0  0  0  0  0  0  0
   23.0633   19.0630   27.6789 H   0  0  0  0  0  0  0  0  0  0  0  0
   21.8510   20.3328   27.3476 H   0  0  0  0  0  0  0  0  0  0  0  0
  1  2  1  0  0  0  0
  1  3  1  0  0  0  0
  1  4  1  0  0  0  0
  4  5  1  0  0  0  0
  4  6  1  0  0  0  0
  4  7  1  0  0  0  0
  7  8  1  0  0  0  0
  7  9  1  0  0  0  0
  7 10  1  0  0  0  0
 10 11  1  0  0  0  0
 10 12  1  0  0  0  0
 10 13  1  0  0  0  0
 13 14  1  0  0  0  0
 13 15  1  0  0  0  0
 13 16  1  0  0  0  0
 16 17  1  0  0  0  0
 16 18  1  0  0  0  0
 16 19  1  0  0  0  0
 19 20  1  0  0  0  0
 19 21  1  0  0  0  0
 19 22  1  0  0  0  0
  1 23  1  0  0  0  0
 23 24  1  0  0  0  0
 23 25  1  0  0  0  0
 23 26  1  0  0  0  0
M  END
> <VConfSearch Rank>
301

> <Conf_Id>
11

> <Delta U+W>
0.000

> <U+W>
21.842

> <U>
70.357

> <W>
-48.515

> <W(PB)>
-50.856

> <W(SA)>
2.341

> <Valence>
1.714

> <Coulomb>
68.480

> <VdW>
0.163

> <VdW6>
-5.268

> <VdW12>
5.431

> <Bond>
0.126

> <Angle>
0.350

> <Pdih>
1.238

> <Idih>
0.000

> <Tether>
0.000

$$$$
VeraChem MOL file


 26 25  0  0  0  0  0  0  0  0999 V2000     
   17.0689   17.4738   22.6634 N   0  3  0  0  0  0  0  0  0  0  0  0
   16.0899   17.5161   22.9888 H   0  0  0  0  0  0  0  0  0  0  0  0
   17.4118   16.5506   22.9712 H   0  0  0  0  0  0  0  0  0  0  0  0
   17.8728   18.5804   23.3254 C   0  0  0  0  0  0  0  0  0  0  0  0
   17.6610   18.5389   24.3969 H   0  0  0  0  0  0  0  0  0  0  0  0
   17.5062   19.5369   22.9443 H   0  0  0  0  0  0  0  0  0  0  0  0
   19.3969   18.4801   23.1119 C   0  0  0  0  0  0  0  0  0  0  0  0
   19.7483   17.4969   23.4519 H   0  0  0  0  0  0  0  0  0  0  0  0
   19.6274   18.5520   22.0411 H   0  0  0  0  0  0  0  0  0  0  0  0
   20.1474   19.5934   23.8760 C   0  0  0  0  0  0  0  0  0  0  0  0
   19.9151   19.5225   24.9478 H   0  0  0  0  0  0  0  0  0  0  0  0
   19.7884   20.5754   23.5375 H   0  0  0  0  0  0  0  0  0  0  0  0
   21.6770   19.5035   23.6716 C   0  0  0  0  0  0  0  0  0  0  0  0
   22.0360   18.5215   24.0097 H   0  0  0  0  0  0  0  0  0  0  0  0
   21.9095   19.5746   22.5999 H   0  0  0  0  0  0  0  0  0  0  0  0
   22.4273   20.6170   24.4359 C   0  0  0  0  0  0  0  0  0  0  0  0
   22.1999   20.5486   25.5091 H   0  0  0  0  0  0  0  0  0  0  0  0
   22.0733   21.6016   24.0994 H   0  0  0  0  0  0  0  0  0  0  0  0
   23.9542   20.5241   24.2294 C   0  0  0  0  0  0  0  0  0  0  0  0
   24.4692   21.3224   24.7794 H   0  0  0  0  0  0  0  0  0  0  0  0
   24.2160   20.6237   23.1679 H   0  0  0  0  0  0  0  0  0  0  0  0
   24.3436   19.5626   24.5887 H   0  0  0  0  0  0  0  0  0  0  0  0
   17.1145   17.5904   21.1440 C   0  0  0  0  0  0  0  0  0  0  0  0
   18.1458   17.4794   20.8032 H   0  0  0  0  0  0  0  0  0  0  0  0
   16.4969   16.8027   20.7067 H   0  0  0  0  0  0  0  0  0  0  0  0
   16.7290   18.5683   20.8475 H   0  0  0  0  0  0  0  0  0  0  0  0
  1  2  1  0  0  0  0
  1  3  1  0  0  0  0
  1  4  1  0  0  0  0
  4  5  1  0  0  0  0
  4  6  1  0  0  0  0
  4  7  1  0  0  0  0
  7  8  1  0  0  0  0
  7  9  1  0  0  0  0
  7 10  1  0  0  0  0
 10 11  1  0  0  0  0
 10 12  1  0  0  0  0
 10 13  1  0  0  0  0
 13 14  1  0  0  0  0
 13 15  1  0  0  0  0
 13 16  1  0  0  0  0
 16 17  1  0  0  0  0
 16 18  1  0  0  0  0
 16 19  1  0  0  0  0
 19 20  1  0  0  0  0
 19 21  1  0  0  0  0
 19 22  1  0  0  0  0
  1 23  1  0  0  0  0
 23 24  1  0  0  0  0
 23 25  1  0  0  0  0
 23 26  1  0  0  0  0
M  END
> <VConfSearch Rank>
302

> <Conf_Id>
102

> <Delta U+W>
0.121

> <U+W>
21.963

> <U>
70.745

> <W>
-48.782

> <W(PB)>
-51.111

> <W(SA)>
2.329

> <Valence>
1.993

> <Coulomb>
68.323

> <VdW>
0.429

> <VdW6>
-5.973

> <VdW12>
6.402

> <Bond>
0.161

> <Angle>
0.472

> <Pdih>
1.360

> <Idih>
0.000

> <Tether>
0.000

$$$$
VeraChem MOL file


 26 25  0  0  0  0  0  0  0  0999 V2000     
   22.2154   16.4435   23.6534 N   0  3  0  0  0  0  0  0  0  0  0  0
   22.2105   16.1910   22.6531 H   0  0  0  0  0  0  0  0  0  0  0  0
   22.2418   15.5417   24.1554 H   0  0  0  0  0  0  0  0  0  0  0  0
   20.9408   17.1885   24.0136 C   0  0  0  0  0  0  0  0  0  0  0  0
   21.0026   17.4714   25.0674 H   0  0  0  0  0  0  0  0  0  0  0  0
   20.1112   16.4861   23.8993 H   0  0  0  0  0  0  0  0  0  0  0  0
   20.6630   18.4363   23.1509 C   0  0  0  0  0  0  0  0  0  0  0  0
   21.4737   19.1650   23.2800 H   0  0  0  0  0  0  0  0  0  0  0  0
   20.6520   18.1509   22.0906 H   0  0  0  0  0  0  0  0  0  0  0  0
   19.3160   19.0927   23.5267 C   0  0  0  0  0  0  0  0  0  0  0  0
   19.3286   19.3709   24.5898 H   0  0  0  0  0  0  0  0  0  0  0  0
   18.5046   18.3626   23.3992 H   0  0  0  0  0  0  0  0  0  0  0  0
   19.0246   20.3446   22.6681 C   0  0  0  0  0  0  0  0  0  0  0  0
   19.8357   21.0749   22.7958 H   0  0  0  0  0  0  0  0  0  0  0  0
   19.0123   20.0666   21.6050 H   0  0  0  0  0  0  0  0  0  0  0  0
   17.6773   21.0008   23.0441 C   0  0  0  0  0  0  0  0  0  0  0  0
   17.6855   21.2829   24.1064 H   0  0  0  0  0  0  0  0  0  0  0  0
   16.8621   20.2749   22.9156 H   0  0  0  0  0  0  0  0  0  0  0  0
   17.3899   22.2506   22.1850 C   0  0  0  0  0  0  0  0  0  0  0  0
   18.1711   23.0101   22.3188 H   0  0  0  0  0  0  0  0  0  0  0  0
   16.4297   22.7022   22.4665 H   0  0  0  0  0  0  0  0  0  0  0  0
   17.3415   21.9942   21.1186 H   0  0  0  0  0  0  0  0  0  0  0  0
   23.4523   17.2648   23.9996 C   0  0  0  0  0  0  0  0  0  0  0  0
   23.4395   17.5006   25.0660 H   0  0  0  0  0  0  0  0  0  0  0  0
   24.3455   16.6828   23.7616 H   0  0  0  0  0  0  0  0  0  0  0  0
   23.4494   18.1873   23.4157 H   0  0  0  0  0  0  0  0  0  0  0  0
  1  2  1  0  0  0  0
  1  3  1  0  0  0  0
  1  4  1  0  0  0  0
  4  5  1  0  0  0  0
  4  6  1  0  0  0  0
  4  7  1  0  0  0  0
  7  8  1  0  0  0  0
  7  9  1  0  0  0  0
  7 10  1  0  0  0  0
 10 11  1  0  0  0  0
 10 12  1  0  0  0  0
 10 13  1  0  0  0  0
 13 14  1  0  0  0  0
 13 15  1  0  0  0  0
 13 16  1  0  0  0  0
 16 17  1  0  0  0  0
 16 18  1  0  0  0  0
 16 19  1  0  0  0  0
 19 20  1  0  0  0  0
 19 21  1  0  0  0  0
 19 22  1  0  0  0  0
  1 23  1  0  0  0  0
 23 24  1  0  0  0  0
 23 25  1  0  0  0  0
 23 26  1  0  0  0  0
M  END
> <VConfSearch Rank>
303

> <Conf_Id>
37

> <Delta U+W>
0.125

> <U+W>
21.967

> <U>
70.745

> <W>
-48.778

> <W(PB)>
-51.115

> <W(SA)>
2.337

> <Valence>
1.993

> <Coulomb>
68.323

> <VdW>
0.429

> <VdW6>
-5.973

> <VdW12>
6.403

> <Bond>
0.161

> <Angle>
0.472

> <Pdih>
1.360

> <Idih>
0.000

> <Tether>
0.000

$$$$
VeraChem MOL file


 26 25  0  0  0  0  0  0  0  0999 V2000     
   21.3115   17.2779   25.3604 N   0  3  0  0  0  0  0  0  0  0  0  0
   20.5901   16.8390   25.9535 H   0  0  0  0  0  0  0  0  0  0  0  0
   21.7251   18.0254   25.9392 H   0  0  0  0  0  0  0  0  0  0  0  0
   20.6778   17.8691   24.1173 C   0  0  0  0  0  0  0  0  0  0  0  0
   20.2438   17.0490   23.5397 H   0  0  0  0  0  0  0  0  0  0  0  0
   21.4734   18.3257   23.5239 H   0  0  0  0  0  0  0  0  0  0  0  0
   19.5907   18.9162   24.4276 C   0  0  0  0  0  0  0  0  0  0  0  0
   18.8224   18.4563   25.0633 H   0  0  0  0  0  0  0  0  0  0  0  0
   20.0262   19.7408   25.0076 H   0  0  0  0  0  0  0  0  0  0  0  0
   18.9162   19.4767   23.1529 C   0  0  0  0  0  0  0  0  0  0  0  0
   18.0853   20.1246   23.4609 H   0  0  0  0  0  0  0  0  0  0  0  0
   18.4716   18.6508   22.5805 H   0  0  0  0  0  0  0  0  0  0  0  0
   19.8909   20.2747   22.2496 C   0  0  0  0  0  0  0  0  0  0  0  0
   20.3197   21.1126   22.8165 H   0  0  0  0  0  0  0  0  0  0  0  0
   20.7341   19.6331   21.9618 H   0  0  0  0  0  0  0  0  0  0  0  0
   19.2320   20.8114   20.9555 C   0  0  0  0  0  0  0  0  0  0  0  0
   18.8112   19.9761   20.3784 H   0  0  0  0  0  0  0  0  0  0  0  0
   20.0118   21.2586   20.3232 H   0  0  0  0  0  0  0  0  0  0  0  0
   18.1355   21.8699   21.2142 C   0  0  0  0  0  0  0  0  0  0  0  0
   17.2721   21.4385   21.7356 H   0  0  0  0  0  0  0  0  0  0  0  0
   17.7723   22.2859   20.2655 H   0  0  0  0  0  0  0  0  0  0  0  0
   18.5228   22.7008   21.8179 H   0  0  0  0  0  0  0  0  0  0  0  0
   22.3717   16.2587   24.9666 C   0  0  0  0  0  0  0  0  0  0  0  0
   23.1405   16.7530   24.3685 H   0  0  0  0  0  0  0  0  0  0  0  0
   22.8199   15.8406   25.8707 H   0  0  0  0  0  0  0  0  0  0  0  0
   21.9048   15.4616   24.3839 H   0  0  0  0  0  0  0  0  0  0  0  0
  1  2  1  0  0  0  0
  1  3  1  0  0  0  0
  1  4  1  0  0  0  0
  4  5  1  0  0  0  0
  4  6  1  0  0  0  0
  4  7  1  0  0  0  0
  7  8  1  0  0  0  0
  7  9  1  0  0  0  0
  7 10  1  0  0  0  0
 10 11  1  0  0  0  0
 10 12  1  0  0  0  0
 10 13  1  0  0  0  0
 13 14  1  0  0  0  0
 13 15  1  0  0  0  0
 13 16  1  0  0  0  0
 16 17  1  0  0  0  0
 16 18  1  0  0  0  0
 16 19  1  0  0  0  0
 19 20  1  0  0  0  0
 19 21  1  0  0  0  0
 19 22  1  0  0  0  0
  1 23  1  0  0  0  0
 23 24  1  0  0  0  0
 23 25  1  0  0  0  0
 23 26  1  0  0  0  0
M  END
> <VConfSearch Rank>
304

> <Conf_Id>
137

> <Delta U+W>
1.038

> <U+W>
22.880

> <U>
71.810

> <W>
-48.930

> <W(PB)>
-51.257

> <W(SA)>
2.327

> <Valence>
2.568

> <Coulomb>
68.877

> <VdW>
0.364

> <VdW6>
-6.470

> <VdW12>
6.834

> <Bond>
0.191

> <Angle>
0.752

> <Pdih>
1.626

> <Idih>
0.000

> <Tether>
0.000

$$$$
VeraChem MOL file


 26 25  0  0  0  0  0  0  0  0999 V2000     
   18.5086   18.0204   25.5922 N   0  3  0  0  0  0  0  0  0  0  0  0
   19.4079   17.9016   26.0843 H   0  0  0  0  0  0  0  0  0  0  0  0
   18.3089   17.1048   25.1603 H   0  0  0  0  0  0  0  0  0  0  0  0
   18.6344   19.0868   24.5227 C   0  0  0  0  0  0  0  0  0  0  0  0
   18.8533   20.0356   25.0192 H   0  0  0  0  0  0  0  0  0  0  0  0
   17.6668   19.1753   24.0223 H   0  0  0  0  0  0  0  0  0  0  0  0
   19.7288   18.7815   23.4838 C   0  0  0  0  0  0  0  0  0  0  0  0
   20.6913   18.6764   23.9999 H   0  0  0  0  0  0  0  0  0  0  0  0
   19.5134   17.8200   22.9992 H   0  0  0  0  0  0  0  0  0  0  0  0
   19.8160   19.8959   22.4144 C   0  0  0  0  0  0  0  0  0  0  0  0
   20.0799   20.8492   22.8930 H   0  0  0  0  0  0  0  0  0  0  0  0
   18.8220   20.0405   21.9684 H   0  0  0  0  0  0  0  0  0  0  0  0
   20.8234   19.5888   21.2788 C   0  0  0  0  0  0  0  0  0  0  0  0
   20.5493   18.6445   20.7883 H   0  0  0  0  0  0  0  0  0  0  0  0
   20.7326   20.3709   20.5123 H   0  0  0  0  0  0  0  0  0  0  0  0
   22.2938   19.5214   21.7557 C   0  0  0  0  0  0  0  0  0  0  0  0
   22.4254   18.6937   22.4651 H   0  0  0  0  0  0  0  0  0  0  0  0
   22.5529   20.4451   22.2920 H   0  0  0  0  0  0  0  0  0  0  0  0
   23.2673   19.3265   20.5737 C   0  0  0  0  0  0  0  0  0  0  0  0
   23.0522   18.3945   20.0348 H   0  0  0  0  0  0  0  0  0  0  0  0
   24.3046   19.2779   20.9296 H   0  0  0  0  0  0  0  0  0  0  0  0
   23.1951   20.1580   19.8606 H   0  0  0  0  0  0  0  0  0  0  0  0
   17.4086   18.3989   26.5743 C   0  0  0  0  0  0  0  0  0  0  0  0
   16.4618   18.4863   26.0369 H   0  0  0  0  0  0  0  0  0  0  0  0
   17.3285   17.6230   27.3389 H   0  0  0  0  0  0  0  0  0  0  0  0
   17.6580   19.3537   27.0425 H   0  0  0  0  0  0  0  0  0  0  0  0
  1  2  1  0  0  0  0
  1  3  1  0  0  0  0
  1  4  1  0  0  0  0
  4  5  1  0  0  0  0
  4  6  1  0  0  0  0
  4  7  1  0  0  0  0
  7  8  1  0  0  0  0
  7  9  1  0  0  0  0
  7 10  1  0  0  0  0
 10 11  1  0  0  0  0
 10 12  1  0  0  0  0
 10 13  1  0  0  0  0
 13 14  1  0  0  0  0
 13 15  1  0  0  0  0
 13 16  1  0  0  0  0
 16 17  1  0  0  0  0
 16 18  1  0  0  0  0
 16 19  1  0  0  0  0
 19 20  1  0  0  0  0
 19 21  1  0  0  0  0
 19 22  1  0  0  0  0
  1 23  1  0  0  0  0
 23 24  1  0  0  0  0
 23 25  1  0  0  0  0
 23 26  1  0  0  0  0
M  END
> <VConfSearch Rank>
305

> <Conf_Id>
35

> <Delta U+W>
0.670

> <U+W>
22.512

> <U>
71.348

> <W>
-48.837

> <W(PB)>
-51.150

> <W(SA)>
2.313

> <Valence>
2.262

> <Coulomb>
68.807

> <VdW>
0.280

> <VdW6>
-5.915

> <VdW12>
6.195

> <Bond>
0.164

> <Angle>
0.622

> <Pdih>
1.475

> <Idih>
0.000

> <Tether>
0.000

$$$$
VeraChem MOL file


 26 25  0  0  0  0  0  0  0  0999 V2000     
   19.5909   19.0601   20.3503 N   0  3  0  0  0  0  0  0  0  0  0  0
   18.6277   18.6927   20.3978 H   0  0  0  0  0  0  0  0  0  0  0  0
   20.2006   18.2284   20.3139 H   0  0  0  0  0  0  0  0  0  0  0  0
   19.8990   19.8810   21.5865 C   0  0  0  0  0  0  0  0  0  0  0  0
   19.2288   20.7443   21.5911 H   0  0  0  0  0  0  0  0  0  0  0  0
   20.9266   20.2432   21.5010 H   0  0  0  0  0  0  0  0  0  0  0  0
   19.7357   19.0916   22.8981 C   0  0  0  0  0  0  0  0  0  0  0  0
   18.7064   18.7159   22.9718 H   0  0  0  0  0  0  0  0  0  0  0  0
   20.3990   18.2179   22.8736 H   0  0  0  0  0  0  0  0  0  0  0  0
   20.0583   19.9719   24.1286 C   0  0  0  0  0  0  0  0  0  0  0  0
   19.4410   20.8802   24.0887 H   0  0  0  0  0  0  0  0  0  0  0  0
   21.1035   20.3079   24.0802 H   0  0  0  0  0  0  0  0  0  0  0  0
   19.8028   19.2640   25.4823 C   0  0  0  0  0  0  0  0  0  0  0  0
   19.9444   19.9958   26.2897 H   0  0  0  0  0  0  0  0  0  0  0  0
   18.7532   18.9437   25.5383 H   0  0  0  0  0  0  0  0  0  0  0  0
   20.7321   18.0526   25.7337 C   0  0  0  0  0  0  0  0  0  0  0  0
   21.7814   18.3611   25.6266 H   0  0  0  0  0  0  0  0  0  0  0  0
   20.5510   17.2727   24.9823 H   0  0  0  0  0  0  0  0  0  0  0  0
   20.5168   17.4521   27.1395 C   0  0  0  0  0  0  0  0  0  0  0  0
   20.7290   18.1920   27.9223 H   0  0  0  0  0  0  0  0  0  0  0  0
   21.1811   16.5930   27.2999 H   0  0  0  0  0  0  0  0  0  0  0  0
   19.4826   17.1066   27.2669 H   0  0  0  0  0  0  0  0  0  0  0  0
   19.7761   19.9129   19.1028 C   0  0  0  0  0  0  0  0  0  0  0  0
   20.8098   20.2625   19.0569 H   0  0  0  0  0  0  0  0  0  0  0  0
   19.5510   19.3101   18.2201 H   0  0  0  0  0  0  0  0  0  0  0  0
   19.0979   20.7679   19.1482 H   0  0  0  0  0  0  0  0  0  0  0  0
  1  2  1  0  0  0  0
  1  3  1  0  0  0  0
  1  4  1  0  0  0  0
  4  5  1  0  0  0  0
  4  6  1  0  0  0  0
  4  7  1  0  0  0  0
  7  8  1  0  0  0  0
  7  9  1  0  0  0  0
  7 10  1  0  0  0  0
 10 11  1  0  0  0  0
 10 12  1  0  0  0  0
 10 13  1  0  0  0  0
 13 14  1  0  0  0  0
 13 15  1  0  0  0  0
 13 16  1  0  0  0  0
 16 17  1  0  0  0  0
 16 18  1  0  0  0  0
 16 19  1  0  0  0  0
 19 20  1  0  0  0  0
 19 21  1  0  0  0  0
 19 22  1  0  0  0  0
  1 23  1  0  0  0  0
 23 24  1  0  0  0  0
 23 25  1  0  0  0  0
 23 26  1  0  0  0  0
M  END
> <VConfSearch Rank>
306

> <Conf_Id>
36

> <Delta U+W>
0.662

> <U+W>
22.504

> <U>
71.348

> <W>
-48.844

> <W(PB)>
-51.157

> <W(SA)>
2.313

> <Valence>
2.262

> <Coulomb>
68.807

> <VdW>
0.280

> <VdW6>
-5.916

> <VdW12>
6.195

> <Bond>
0.164

> <Angle>
0.622

> <Pdih>
1.475

> <Idih>
0.000

> <Tether>
0.000

$$$$
VeraChem MOL file


 26 25  0  0  0  0  0  0  0  0999 V2000     
   22.7348   19.9431   24.5810 N   0  3  0  0  0  0  0  0  0  0  0  0
   22.4035   19.8956   25.5571 H   0  0  0  0  0  0  0  0  0  0  0  0
   23.0316   20.9212   24.4393 H   0  0  0  0  0  0  0  0  0  0  0  0
   21.6085   19.5953   23.6287 C   0  0  0  0  0  0  0  0  0  0  0  0
   21.3232   18.5574   23.8161 H   0  0  0  0  0  0  0  0  0  0  0  0
   21.9965   19.6678   22.6096 H   0  0  0  0  0  0  0  0  0  0  0  0
   20.3781   20.5102   23.7811 C   0  0  0  0  0  0  0  0  0  0  0  0
   19.9892   20.4386   24.8056 H   0  0  0  0  0  0  0  0  0  0  0  0
   20.6865   21.5538   23.6340 H   0  0  0  0  0  0  0  0  0  0  0  0
   19.2538   20.1723   22.7736 C   0  0  0  0  0  0  0  0  0  0  0  0
   19.6382   20.2715   21.7488 H   0  0  0  0  0  0  0  0  0  0  0  0
   18.4523   20.9168   22.8776 H   0  0  0  0  0  0  0  0  0  0  0  0
   18.6622   18.7561   22.9747 C   0  0  0  0  0  0  0  0  0  0  0  0
   19.4426   17.9981   22.8247 H   0  0  0  0  0  0  0  0  0  0  0  0
   18.3092   18.6491   24.0098 H   0  0  0  0  0  0  0  0  0  0  0  0
   17.4939   18.4786   22.0024 C   0  0  0  0  0  0  0  0  0  0  0  0
   17.8412   18.5851   20.9650 H   0  0  0  0  0  0  0  0  0  0  0  0
   16.7023   19.2267   22.1496 H   0  0  0  0  0  0  0  0  0  0  0  0
   16.9058   17.0655   22.2027 C   0  0  0  0  0  0  0  0  0  0  0  0
   17.6657   16.2928   22.0277 H   0  0  0  0  0  0  0  0  0  0  0  0
   16.0778   16.8876   21.5042 H   0  0  0  0  0  0  0  0  0  0  0  0
   16.5189   16.9397   23.2224 H   0  0  0  0  0  0  0  0  0  0  0  0
   23.9055   18.9935   24.3675 C   0  0  0  0  0  0  0  0  0  0  0  0
   24.2596   19.0856   23.3384 H   0  0  0  0  0  0  0  0  0  0  0  0
   24.7096   19.2551   25.0590 H   0  0  0  0  0  0  0  0  0  0  0  0
   23.5761   17.9693   24.5554 H   0  0  0  0  0  0  0  0  0  0  0  0
  1  2  1  0  0  0  0
  1  3  1  0  0  0  0
  1  4  1  0  0  0  0
  4  5  1  0  0  0  0
  4  6  1  0  0  0  0
  4  7  1  0  0  0  0
  7  8  1  0  0  0  0
  7  9  1  0  0  0  0
  7 10  1  0  0  0  0
 10 11  1  0  0  0  0
 10 12  1  0  0  0  0
 10 13  1  0  0  0  0
 13 14  1  0  0  0  0
 13 15  1  0  0  0  0
 13 16  1  0  0  0  0
 16 17  1  0  0  0  0
 16 18  1  0  0  0  0
 16 19  1  0  0  0  0
 19 20  1  0  0  0  0
 19 21  1  0  0  0  0
 19 22  1  0  0  0  0
  1 23  1  0  0  0  0
 23 24  1  0  0  0  0
 23 25  1  0  0  0  0
 23 26  1  0  0  0  0
M  END
> <VConfSearch Rank>
307

> <Conf_Id>
46

> <Delta U+W>
0.496

> <U+W>
22.338

> <U>
71.138

> <W>
-48.799

> <W(PB)>
-51.136

> <W(SA)>
2.337

> <Valence>
2.016

> <Coulomb>
68.932

> <VdW>
0.190

> <VdW6>
-5.902

> <VdW12>
6.092

> <Bond>
0.149

> <Angle>
0.477

> <Pdih>
1.390

> <Idih>
0.000

> <Tether>
0.000

$$$$
VeraChem MOL file


 26 25  0  0  0  0  0  0  0  0999 V2000     
   20.3134   16.0833   23.3781 N   0  3  0  0  0  0  0  0  0  0  0  0
   19.9473   15.5438   22.5783 H   0  0  0  0  0  0  0  0  0  0  0  0
   19.6525   15.9101   24.1514 H   0  0  0  0  0  0  0  0  0  0  0  0
   20.3483   17.5602   23.0407 C   0  0  0  0  0  0  0  0  0  0  0  0
   21.0488   17.6988   22.2134 H   0  0  0  0  0  0  0  0  0  0  0  0
   20.7355   18.0916   23.9133 H   0  0  0  0  0  0  0  0  0  0  0  0
   18.9696   18.1289   22.6531 C   0  0  0  0  0  0  0  0  0  0  0  0
   18.5720   17.5580   21.8034 H   0  0  0  0  0  0  0  0  0  0  0  0
   18.2652   17.9880   23.4837 H   0  0  0  0  0  0  0  0  0  0  0  0
   19.0274   19.6262   22.2687 C   0  0  0  0  0  0  0  0  0  0  0  0
   18.0338   19.9385   21.9183 H   0  0  0  0  0  0  0  0  0  0  0  0
   19.7120   19.7603   21.4196 H   0  0  0  0  0  0  0  0  0  0  0  0
   19.4637   20.5386   23.4405 C   0  0  0  0  0  0  0  0  0  0  0  0
   18.7972   20.3776   24.2992 H   0  0  0  0  0  0  0  0  0  0  0  0
   20.4765   20.2698   23.7690 H   0  0  0  0  0  0  0  0  0  0  0  0
   19.4399   22.0320   23.0449 C   0  0  0  0  0  0  0  0  0  0  0  0
   18.4281   22.3149   22.7223 H   0  0  0  0  0  0  0  0  0  0  0  0
   20.1045   22.1988   22.1855 H   0  0  0  0  0  0  0  0  0  0  0  0
   19.8767   22.9408   24.2137 C   0  0  0  0  0  0  0  0  0  0  0  0
   19.2099   22.8212   25.0776 H   0  0  0  0  0  0  0  0  0  0  0  0
   19.8529   23.9965   23.9138 H   0  0  0  0  0  0  0  0  0  0  0  0
   20.8994   22.7055   24.5363 H   0  0  0  0  0  0  0  0  0  0  0  0
   21.7095   15.6042   23.7513 C   0  0  0  0  0  0  0  0  0  0  0  0
   21.6704   14.5393   23.9917 H   0  0  0  0  0  0  0  0  0  0  0  0
   22.3828   15.7671   22.9069 H   0  0  0  0  0  0  0  0  0  0  0  0
   22.0618   16.1656   24.6194 H   0  0  0  0  0  0  0  0  0  0  0  0
  1  2  1  0  0  0  0
  1  3  1  0  0  0  0
  1  4  1  0  0  0  0
  4  5  1  0  0  0  0
  4  6  1  0  0  0  0
  4  7  1  0  0  0  0
  7  8  1  0  0  0  0
  7  9  1  0  0  0  0
  7 10  1  0  0  0  0
 10 11  1  0  0  0  0
 10 12  1  0  0  0  0
 10 13  1  0  0  0  0
 13 14  1  0  0  0  0
 13 15  1  0  0  0  0
 13 16  1  0  0  0  0
 16 17  1  0  0  0  0
 16 18  1  0  0  0  0
 16 19  1  0  0  0  0
 19 20  1  0  0  0  0
 19 21  1  0  0  0  0
 19 22  1  0  0  0  0
  1 23  1  0  0  0  0
 23 24  1  0  0  0  0
 23 25  1  0  0  0  0
 23 26  1  0  0  0  0
M  END
> <VConfSearch Rank>
308

> <Conf_Id>
45

> <Delta U+W>
0.471

> <U+W>
22.313

> <U>
71.138

> <W>
-48.825

> <W(PB)>
-51.169

> <W(SA)>
2.344

> <Valence>
2.016

> <Coulomb>
68.932

> <VdW>
0.190

> <VdW6>
-5.902

> <VdW12>
6.092

> <Bond>
0.149

> <Angle>
0.477

> <Pdih>
1.390

> <Idih>
0.000

> <Tether>
0.000

$$$$
VeraChem MOL file


 26 25  0  0  0  0  0  0  0  0999 V2000     
   19.3938   16.9439   24.5779 N   0  3  0  0  0  0  0  0  0  0  0  0
   19.9427   17.5404   25.2152 H   0  0  0  0  0  0  0  0  0  0  0  0
   20.0873   16.4528   23.9926 H   0  0  0  0  0  0  0  0  0  0  0  0
   18.4922   17.8008   23.7104 C   0  0  0  0  0  0  0  0  0  0  0  0
   17.7800   18.3103   24.3643 H   0  0  0  0  0  0  0  0  0  0  0  0
   17.9326   17.1304   23.0531 H   0  0  0  0  0  0  0  0  0  0  0  0
   19.2483   18.8389   22.8581 C   0  0  0  0  0  0  0  0  0  0  0  0
   19.9587   18.3173   22.2045 H   0  0  0  0  0  0  0  0  0  0  0  0
   18.5257   19.3408   22.2011 H   0  0  0  0  0  0  0  0  0  0  0  0
   19.9799   19.8977   23.7208 C   0  0  0  0  0  0  0  0  0  0  0  0
   20.7682   19.4197   24.3176 H   0  0  0  0  0  0  0  0  0  0  0  0
   19.2668   20.3282   24.4377 H   0  0  0  0  0  0  0  0  0  0  0  0
   20.5968   21.0503   22.8907 C   0  0  0  0  0  0  0  0  0  0  0  0
   19.8088   21.5487   22.3092 H   0  0  0  0  0  0  0  0  0  0  0  0
   20.9920   21.8060   23.5837 H   0  0  0  0  0  0  0  0  0  0  0  0
   21.7326   20.5926   21.9449 C   0  0  0  0  0  0  0  0  0  0  0  0
   21.3424   19.8929   21.1940 H   0  0  0  0  0  0  0  0  0  0  0  0
   22.4977   20.0507   22.5183 H   0  0  0  0  0  0  0  0  0  0  0  0
   22.3879   21.7886   21.2216 C   0  0  0  0  0  0  0  0  0  0  0  0
   21.6530   22.3336   20.6148 H   0  0  0  0  0  0  0  0  0  0  0  0
   23.1886   21.4462   20.5533 H   0  0  0  0  0  0  0  0  0  0  0  0
   22.8275   22.4927   21.9401 H   0  0  0  0  0  0  0  0  0  0  0  0
   18.5581   15.9464   25.3677 C   0  0  0  0  0  0  0  0  0  0  0  0
   18.0109   15.3062   24.6722 H   0  0  0  0  0  0  0  0  0  0  0  0
   19.2191   15.3368   25.9879 H   0  0  0  0  0  0  0  0  0  0  0  0
   17.8545   16.4900   26.0021 H   0  0  0  0  0  0  0  0  0  0  0  0
  1  2  1  0  0  0  0
  1  3  1  0  0  0  0
  1  4  1  0  0  0  0
  4  5  1  0  0  0  0
  4  6  1  0  0  0  0
  4  7  1  0  0  0  0
  7  8  1  0  0  0  0
  7  9  1  0  0  0  0
  7 10  1  0  0  0  0
 10 11  1  0  0  0  0
 10 12  1  0  0  0  0
 10 13  1  0  0  0  0
 13 14  1  0  0  0  0
 13 15  1  0  0  0  0
 13 16  1  0  0  0  0
 16 17  1  0  0  0  0
 16 18  1  0  0  0  0
 16 19  1  0  0  0  0
 19 20  1  0  0  0  0
 19 21  1  0  0  0  0
 19 22  1  0  0  0  0
  1 23  1  0  0  0  0
 23 24  1  0  0  0  0
 23 25  1  0  0  0  0
 23 26  1  0  0  0  0
M  END
> <VConfSearch Rank>
309

> <Conf_Id>
143

> <Delta U+W>
0.915

> <U+W>
22.757

> <U>
71.994

> <W>
-49.237

> <W(PB)>
-51.537

> <W(SA)>
2.300

> <Valence>
2.376

> <Coulomb>
69.315

> <VdW>
0.303

> <VdW6>
-6.508

> <VdW12>
6.810

> <Bond>
0.182

> <Angle>
0.660

> <Pdih>
1.534

> <Idih>
0.000

> <Tether>
0.000

$$$$
VeraChem MOL file


 26 25  0  0  0  0  0  0  0  0999 V2000     
   18.4272   19.0049   21.2451 N   0  3  0  0  0  0  0  0  0  0  0  0
   18.2013   19.9354   21.6273 H   0  0  0  0  0  0  0  0  0  0  0  0
   17.7703   18.3522   21.7003 H   0  0  0  0  0  0  0  0  0  0  0  0
   19.8563   18.6319   21.5900 C   0  0  0  0  0  0  0  0  0  0  0  0
   20.5205   19.3484   21.1003 H   0  0  0  0  0  0  0  0  0  0  0  0
   20.0486   17.6433   21.1653 H   0  0  0  0  0  0  0  0  0  0  0  0
   20.1498   18.6020   23.1031 C   0  0  0  0  0  0  0  0  0  0  0  0
   19.4612   17.9040   23.5974 H   0  0  0  0  0  0  0  0  0  0  0  0
   21.1624   18.2033   23.2395 H   0  0  0  0  0  0  0  0  0  0  0  0
   20.0551   20.0013   23.7590 C   0  0  0  0  0  0  0  0  0  0  0  0
   19.0773   20.4463   23.5330 H   0  0  0  0  0  0  0  0  0  0  0  0
   20.8046   20.6661   23.3074 H   0  0  0  0  0  0  0  0  0  0  0  0
   20.2319   19.9986   25.2998 C   0  0  0  0  0  0  0  0  0  0  0  0
   20.1015   21.0324   25.6486 H   0  0  0  0  0  0  0  0  0  0  0  0
   19.4229   19.4242   25.7719 H   0  0  0  0  0  0  0  0  0  0  0  0
   21.6105   19.4927   25.7983 C   0  0  0  0  0  0  0  0  0  0  0  0
   21.8975   20.0757   26.6846 H   0  0  0  0  0  0  0  0  0  0  0  0
   22.3856   19.6893   25.0445 H   0  0  0  0  0  0  0  0  0  0  0  0
   21.6099   17.9970   26.1927 C   0  0  0  0  0  0  0  0  0  0  0  0
   21.3514   17.3470   25.3496 H   0  0  0  0  0  0  0  0  0  0  0  0
   20.8904   17.8051   26.9993 H   0  0  0  0  0  0  0  0  0  0  0  0
   22.6016   17.6947   26.5534 H   0  0  0  0  0  0  0  0  0  0  0  0
   18.2373   18.9882   19.7348 C   0  0  0  0  0  0  0  0  0  0  0  0
   18.4509   17.9859   19.3571 H   0  0  0  0  0  0  0  0  0  0  0  0
   17.2052   19.2585   19.5004 H   0  0  0  0  0  0  0  0  0  0  0  0
   18.9200   19.7087   19.2790 H   0  0  0  0  0  0  0  0  0  0  0  0
  1  2  1  0  0  0  0
  1  3  1  0  0  0  0
  1  4  1  0  0  0  0
  4  5  1  0  0  0  0
  4  6  1  0  0  0  0
  4  7  1  0  0  0  0
  7  8  1  0  0  0  0
  7  9  1  0  0  0  0
  7 10  1  0  0  0  0
 10 11  1  0  0  0  0
 10 12  1  0  0  0  0
 10 13  1  0  0  0  0
 13 14  1  0  0  0  0
 13 15  1  0  0  0  0
 13 16  1  0  0  0  0
 16 17  1  0  0  0  0
 16 18  1  0  0  0  0
 16 19  1  0  0  0  0
 19 20  1  0  0  0  0
 19 21  1  0  0  0  0
 19 22  1  0  0  0  0
  1 23  1  0  0  0  0
 23 24  1  0  0  0  0
 23 25  1  0  0  0  0
 23 26  1  0  0  0  0
M  END
> <VConfSearch Rank>
310

> <Conf_Id>
76

> <Delta U+W>
3.468

> <U+W>
25.310

> <U>
74.594

> <W>
-49.283

> <W(PB)>
-51.537

> <W(SA)>
2.253

> <Valence>
4.886

> <Coulomb>
69.332

> <VdW>
0.376

> <VdW6>
-7.329

> <VdW12>
7.705

> <Bond>
0.232

> <Angle>
1.251

> <Pdih>
3.403

> <Idih>
0.000

> <Tether>
0.000

$$$$
VeraChem MOL file


 26 25  0  0  0  0  0  0  0  0999 V2000     
   19.9668   18.0742   25.9191 N   0  3  0  0  0  0  0  0  0  0  0  0
   19.0065   18.4515   25.9031 H   0  0  0  0  0  0  0  0  0  0  0  0
   20.5251   18.7659   26.4432 H   0  0  0  0  0  0  0  0  0  0  0  0
   20.4982   17.9356   24.5065 C   0  0  0  0  0  0  0  0  0  0  0  0
   19.8774   17.2025   23.9853 H   0  0  0  0  0  0  0  0  0  0  0  0
   21.5162   17.5429   24.5684 H   0  0  0  0  0  0  0  0  0  0  0  0
   20.5010   19.2612   23.7239 C   0  0  0  0  0  0  0  0  0  0  0  0
   19.4813   19.6607   23.6887 H   0  0  0  0  0  0  0  0  0  0  0  0
   21.1124   19.9982   24.2615 H   0  0  0  0  0  0  0  0  0  0  0  0
   21.0614   19.0696   22.2940 C   0  0  0  0  0  0  0  0  0  0  0  0
   20.4961   18.2919   21.7619 H   0  0  0  0  0  0  0  0  0  0  0  0
   22.0900   18.6919   22.3788 H   0  0  0  0  0  0  0  0  0  0  0  0
   21.0859   20.3762   21.4582 C   0  0  0  0  0  0  0  0  0  0  0  0
   21.2182   21.2471   22.1148 H   0  0  0  0  0  0  0  0  0  0  0  0
   21.9765   20.3537   20.8148 H   0  0  0  0  0  0  0  0  0  0  0  0
   19.8540   20.5832   20.5400 C   0  0  0  0  0  0  0  0  0  0  0  0
   19.7910   19.7586   19.8163 H   0  0  0  0  0  0  0  0  0  0  0  0
   20.0109   21.4954   19.9475 H   0  0  0  0  0  0  0  0  0  0  0  0
   18.5111   20.7075   21.2927 C   0  0  0  0  0  0  0  0  0  0  0  0
   18.5624   21.4800   22.0709 H   0  0  0  0  0  0  0  0  0  0  0  0
   18.2266   19.7569   21.7602 H   0  0  0  0  0  0  0  0  0  0  0  0
   17.7069   20.9836   20.5985 H   0  0  0  0  0  0  0  0  0  0  0  0
   19.9977   16.7225   26.6190 C   0  0  0  0  0  0  0  0  0  0  0  0
   19.3744   16.0170   26.0653 H   0  0  0  0  0  0  0  0  0  0  0  0
   21.0272   16.3592   26.6532 H   0  0  0  0  0  0  0  0  0  0  0  0
   19.6128   16.8363   27.6349 H   0  0  0  0  0  0  0  0  0  0  0  0
  1  2  1  0  0  0  0
  1  3  1  0  0  0  0
  1  4  1  0  0  0  0
  4  5  1  0  0  0  0
  4  6  1  0  0  0  0
  4  7  1  0  0  0  0
  7  8  1  0  0  0  0
  7  9  1  0  0  0  0
  7 10  1  0  0  0  0
 10 11  1  0  0  0  0
 10 12  1  0  0  0  0
 10 13  1  0  0  0  0
 13 14  1  0  0  0  0
 13 15  1  0  0  0  0
 13 16  1  0  0  0  0
 16 17  1  0  0  0  0
 16 18  1  0  0  0  0
 16 19  1  0  0  0  0
 19 20  1  0  0  0  0
 19 21  1  0  0  0  0
 19 22  1  0  0  0  0
  1 23  1  0  0  0  0
 23 24  1  0  0  0  0
 23 25  1  0  0  0  0
 23 26  1  0  0  0  0
M  END
> <VConfSearch Rank>
311

> <Conf_Id>
123

> <Delta U+W>
3.101

> <U+W>
24.943

> <U>
74.070

> <W>
-49.127

> <W(PB)>
-51.421

> <W(SA)>
2.295

> <Valence>
4.690

> <Coulomb>
69.115

> <VdW>
0.266

> <VdW6>
-6.809

> <VdW12>
7.075

> <Bond>
0.212

> <Angle>
1.133

> <Pdih>
3.345

> <Idih>
0.000

> <Tether>
0.000

$$$$
VeraChem MOL file


 26 25  0  0  0  0  0  0  0  0999 V2000     
   22.3442   20.3739   23.8327 N   0  3  0  0  0  0  0  0  0  0  0  0
   23.0089   19.6070   24.0189 H   0  0  0  0  0  0  0  0  0  0  0  0
   21.7944   20.4795   24.6985 H   0  0  0  0  0  0  0  0  0  0  0  0
   21.4323   20.0051   22.6784 C   0  0  0  0  0  0  0  0  0  0  0  0
   22.0552   19.9047   21.7859 H   0  0  0  0  0  0  0  0  0  0  0  0
   20.7384   20.8342   22.5185 H   0  0  0  0  0  0  0  0  0  0  0  0
   20.6400   18.7011   22.8973 C   0  0  0  0  0  0  0  0  0  0  0  0
   20.1031   18.4676   21.9712 H   0  0  0  0  0  0  0  0  0  0  0  0
   21.3409   17.8723   23.0633 H   0  0  0  0  0  0  0  0  0  0  0  0
   19.6471   18.7975   24.0838 C   0  0  0  0  0  0  0  0  0  0  0  0
   19.0044   19.6820   23.9740 H   0  0  0  0  0  0  0  0  0  0  0  0
   20.2205   18.9507   25.0078 H   0  0  0  0  0  0  0  0  0  0  0  0
   18.7756   17.5266   24.2616 C   0  0  0  0  0  0  0  0  0  0  0  0
   19.3179   16.6391   23.9073 H   0  0  0  0  0  0  0  0  0  0  0  0
   18.6188   17.3667   25.3374 H   0  0  0  0  0  0  0  0  0  0  0  0
   17.3785   17.5998   23.5935 C   0  0  0  0  0  0  0  0  0  0  0  0
   16.8049   18.4298   24.0294 H   0  0  0  0  0  0  0  0  0  0  0  0
   16.8245   16.6841   23.8432 H   0  0  0  0  0  0  0  0  0  0  0  0
   17.4139   17.7533   22.0571 C   0  0  0  0  0  0  0  0  0  0  0  0
   18.0288   16.9705   21.5945 H   0  0  0  0  0  0  0  0  0  0  0  0
   17.8127   18.7319   21.7629 H   0  0  0  0  0  0  0  0  0  0  0  0
   16.4014   17.6742   21.6406 H   0  0  0  0  0  0  0  0  0  0  0  0
   23.0896   21.6622   23.5133 C   0  0  0  0  0  0  0  0  0  0  0  0
   22.3666   22.4648   23.3518 H   0  0  0  0  0  0  0  0  0  0  0  0
   23.7416   21.9163   24.3521 H   0  0  0  0  0  0  0  0  0  0  0  0
   23.6885   21.5165   22.6116 H   0  0  0  0  0  0  0  0  0  0  0  0
  1  2  1  0  0  0  0
  1  3  1  0  0  0  0
  1  4  1  0  0  0  0
  4  5  1  0  0  0  0
  4  6  1  0  0  0  0
  4  7  1  0  0  0  0
  7  8  1  0  0  0  0
  7  9  1  0  0  0  0
  7 10  1  0  0  0  0
 10 11  1  0  0  0  0
 10 12  1  0  0  0  0
 10 13  1  0  0  0  0
 13 14  1  0  0  0  0
 13 15  1  0  0  0  0
 13 16  1  0  0  0  0
 16 17  1  0  0  0  0
 16 18  1  0  0  0  0
 16 19  1  0  0  0  0
 19 20  1  0  0  0  0
 19 21  1  0  0  0  0
 19 22  1  0  0  0  0
  1 23  1  0  0  0  0
 23 24  1  0  0  0  0
 23 25  1  0  0  0  0
 23 26  1  0  0  0  0
M  END
> <VConfSearch Rank>
312

> <Conf_Id>
111

> <Delta U+W>
3.383

> <U+W>
25.225

> <U>
74.516

> <W>
-49.292

> <W(PB)>
-51.558

> <W(SA)>
2.266

> <Valence>
4.842

> <Coulomb>
69.333

> <VdW>
0.342

> <VdW6>
-7.369

> <VdW12>
7.711

> <Bond>
0.232

> <Angle>
1.153

> <Pdih>
3.457

> <Idih>
0.000

> <Tether>
0.000

$$$$
VeraChem MOL file


 26 25  0  0  0  0  0  0  0  0999 V2000     
   17.6716   18.7176   23.1135 N   0  3  0  0  0  0  0  0  0  0  0  0
   17.4063   17.7556   22.8511 H   0  0  0  0  0  0  0  0  0  0  0  0
   18.2496   19.0678   22.3348 H   0  0  0  0  0  0  0  0  0  0  0  0
   18.4825   18.7038   24.3945 C   0  0  0  0  0  0  0  0  0  0  0  0
   17.8396   18.3168   25.1891 H   0  0  0  0  0  0  0  0  0  0  0  0
   18.7407   19.7363   24.6407 H   0  0  0  0  0  0  0  0  0  0  0  0
   19.7649   17.8499   24.3124 C   0  0  0  0  0  0  0  0  0  0  0  0
   20.2583   17.8614   25.2934 H   0  0  0  0  0  0  0  0  0  0  0  0
   19.4877   16.8045   24.1226 H   0  0  0  0  0  0  0  0  0  0  0  0
   20.7708   18.3170   23.2298 C   0  0  0  0  0  0  0  0  0  0  0  0
   20.3177   18.2270   22.2336 H   0  0  0  0  0  0  0  0  0  0  0  0
   21.6246   17.6271   23.2395 H   0  0  0  0  0  0  0  0  0  0  0  0
   21.2736   19.7669   23.4483 C   0  0  0  0  0  0  0  0  0  0  0  0
   20.4184   20.4553   23.4623 H   0  0  0  0  0  0  0  0  0  0  0  0
   21.7517   19.8483   24.4342 H   0  0  0  0  0  0  0  0  0  0  0  0
   22.2590   20.2487   22.3557 C   0  0  0  0  0  0  0  0  0  0  0  0
   22.4729   21.3141   22.5202 H   0  0  0  0  0  0  0  0  0  0  0  0
   21.7820   20.1808   21.3680 H   0  0  0  0  0  0  0  0  0  0  0  0
   23.5949   19.4710   22.3429 C   0  0  0  0  0  0  0  0  0  0  0  0
   23.4494   18.4220   22.0569 H   0  0  0  0  0  0  0  0  0  0  0  0
   24.0761   19.4958   23.3292 H   0  0  0  0  0  0  0  0  0  0  0  0
   24.2907   19.9153   21.6194 H   0  0  0  0  0  0  0  0  0  0  0  0
   16.4335   19.5849   23.2925 C   0  0  0  0  0  0  0  0  0  0  0  0
   15.8599   19.5867   22.3629 H   0  0  0  0  0  0  0  0  0  0  0  0
   15.8234   19.1770   24.1015 H   0  0  0  0  0  0  0  0  0  0  0  0
   16.7410   20.6036   23.5383 H   0  0  0  0  0  0  0  0  0  0  0  0
  1  2  1  0  0  0  0
  1  3  1  0  0  0  0
  1  4  1  0  0  0  0
  4  5  1  0  0  0  0
  4  6  1  0  0  0  0
  4  7  1  0  0  0  0
  7  8  1  0  0  0  0
  7  9  1  0  0  0  0
  7 10  1  0  0  0  0
 10 11  1  0  0  0  0
 10 12  1  0  0  0  0
 10 13  1  0  0  0  0
 13 14  1  0  0  0  0
 13 15  1  0  0  0  0
 13 16  1  0  0  0  0
 16 17  1  0  0  0  0
 16 18  1  0  0  0  0
 16 19  1  0  0  0  0
 19 20  1  0  0  0  0
 19 21  1  0  0  0  0
 19 22  1  0  0  0  0
  1 23  1  0  0  0  0
 23 24  1  0  0  0  0
 23 25  1  0  0  0  0
 23 26  1  0  0  0  0
M  END
> <VConfSearch Rank>
313

> <Conf_Id>
126

> <Delta U+W>
1.519

> <U+W>
23.361

> <U>
72.579

> <W>
-49.218

> <W(PB)>
-51.496

> <W(SA)>
2.279

> <Valence>
2.678

> <Coulomb>
69.622

> <VdW>
0.279

> <VdW6>
-7.328

> <VdW12>
7.608

> <Bond>
0.212

> <Angle>
0.911

> <Pdih>
1.555

> <Idih>
0.000

> <Tether>
0.000

$$$$
VeraChem MOL file


 26 25  0  0  0  0  0  0  0  0999 V2000     
   21.7336   17.6121   22.4483 N   0  3  0  0  0  0  0  0  0  0  0  0
   21.5891   18.5657   22.0838 H   0  0  0  0  0  0  0  0  0  0  0  0
   21.4192   16.9778   21.6976 H   0  0  0  0  0  0  0  0  0  0  0  0
   20.8952   17.4016   23.6939 C   0  0  0  0  0  0  0  0  0  0  0  0
   21.2589   18.0858   24.4641 H   0  0  0  0  0  0  0  0  0  0  0  0
   21.0677   16.3794   24.0401 H   0  0  0  0  0  0  0  0  0  0  0  0
   19.3838   17.6191   23.4733 C   0  0  0  0  0  0  0  0  0  0  0  0
   19.0197   16.8868   22.7405 H   0  0  0  0  0  0  0  0  0  0  0  0
   18.8565   17.4000   24.4113 H   0  0  0  0  0  0  0  0  0  0  0  0
   19.0099   19.0465   22.9991 C   0  0  0  0  0  0  0  0  0  0  0  0
   17.9233   19.0798   22.8468 H   0  0  0  0  0  0  0  0  0  0  0  0
   19.4614   19.2456   22.0182 H   0  0  0  0  0  0  0  0  0  0  0  0
   19.4268   20.1520   24.0026 C   0  0  0  0  0  0  0  0  0  0  0  0
   18.9516   19.9669   24.9758 H   0  0  0  0  0  0  0  0  0  0  0  0
   20.5102   20.1045   24.1741 H   0  0  0  0  0  0  0  0  0  0  0  0
   19.0795   21.5824   23.5228 C   0  0  0  0  0  0  0  0  0  0  0  0
   19.5622   21.7779   22.5550 H   0  0  0  0  0  0  0  0  0  0  0  0
   19.5092   22.3047   24.2310 H   0  0  0  0  0  0  0  0  0  0  0  0
   17.5602   21.8435   23.4086 C   0  0  0  0  0  0  0  0  0  0  0  0
   17.0492   21.6233   24.3549 H   0  0  0  0  0  0  0  0  0  0  0  0
   17.1031   21.2330   22.6202 H   0  0  0  0  0  0  0  0  0  0  0  0
   17.3691   22.8958   23.1617 H   0  0  0  0  0  0  0  0  0  0  0  0
   23.2037   17.3784   22.7666 C   0  0  0  0  0  0  0  0  0  0  0  0
   23.5199   18.0819   23.5400 H   0  0  0  0  0  0  0  0  0  0  0  0
   23.3356   16.3540   23.1217 H   0  0  0  0  0  0  0  0  0  0  0  0
   23.7954   17.5343   21.8618 H   0  0  0  0  0  0  0  0  0  0  0  0
  1  2  1  0  0  0  0
  1  3  1  0  0  0  0
  1  4  1  0  0  0  0
  4  5  1  0  0  0  0
  4  6  1  0  0  0  0
  4  7  1  0  0  0  0
  7  8  1  0  0  0  0
  7  9  1  0  0  0  0
  7 10  1  0  0  0  0
 10 11  1  0  0  0  0
 10 12  1  0  0  0  0
 10 13  1  0  0  0  0
 13 14  1  0  0  0  0
 13 15  1  0  0  0  0
 13 16  1  0  0  0  0
 16 17  1  0  0  0  0
 16 18  1  0  0  0  0
 16 19  1  0  0  0  0
 19 20  1  0  0  0  0
 19 21  1  0  0  0  0
 19 22  1  0  0  0  0
  1 23  1  0  0  0  0
 23 24  1  0  0  0  0
 23 25  1  0  0  0  0
 23 26  1  0  0  0  0
M  END
> <VConfSearch Rank>
314

> <Conf_Id>
134

> <Delta U+W>
1.464

> <U+W>
23.306

> <U>
72.579

> <W>
-49.273

> <W(PB)>
-51.540

> <W(SA)>
2.267

> <Valence>
2.677

> <Coulomb>
69.622

> <VdW>
0.280

> <VdW6>
-7.328

> <VdW12>
7.608

> <Bond>
0.212

> <Angle>
0.911

> <Pdih>
1.555

> <Idih>
0.000

> <Tether>
0.000

$$$$
VeraChem MOL file


 26 25  0  0  0  0  0  0  0  0999 V2000     
   18.4709   17.2350   24.6301 N   0  3  0  0  0  0  0  0  0  0  0  0
   18.1798   18.0322   25.2170 H   0  0  0  0  0  0  0  0  0  0  0  0
   19.1625   16.7168   25.1940 H   0  0  0  0  0  0  0  0  0  0  0  0
   19.1091   17.7339   23.3492 C   0  0  0  0  0  0  0  0  0  0  0  0
   18.3488   18.2818   22.7870 H   0  0  0  0  0  0  0  0  0  0  0  0
   19.4095   16.8620   22.7627 H   0  0  0  0  0  0  0  0  0  0  0  0
   20.3291   18.6413   23.5901 C   0  0  0  0  0  0  0  0  0  0  0  0
   20.0196   19.5031   24.1948 H   0  0  0  0  0  0  0  0  0  0  0  0
   21.0840   18.0926   24.1687 H   0  0  0  0  0  0  0  0  0  0  0  0
   20.9448   19.1231   22.2554 C   0  0  0  0  0  0  0  0  0  0  0  0
   20.2029   19.7056   21.6929 H   0  0  0  0  0  0  0  0  0  0  0  0
   21.1753   18.2476   21.6325 H   0  0  0  0  0  0  0  0  0  0  0  0
   22.2440   19.9510   22.4337 C   0  0  0  0  0  0  0  0  0  0  0  0
   23.0118   19.3157   22.8964 H   0  0  0  0  0  0  0  0  0  0  0  0
   22.6323   20.2152   21.4404 H   0  0  0  0  0  0  0  0  0  0  0  0
   22.0950   21.2456   23.2734 C   0  0  0  0  0  0  0  0  0  0  0  0
   23.0745   21.7407   23.3286 H   0  0  0  0  0  0  0  0  0  0  0  0
   21.8261   20.9981   24.3090 H   0  0  0  0  0  0  0  0  0  0  0  0
   21.0667   22.2418   22.6909 C   0  0  0  0  0  0  0  0  0  0  0  0
   21.3044   22.4900   21.6484 H   0  0  0  0  0  0  0  0  0  0  0  0
   21.0676   23.1762   23.2670 H   0  0  0  0  0  0  0  0  0  0  0  0
   20.0485   21.8347   22.7243 H   0  0  0  0  0  0  0  0  0  0  0  0
   17.2770   16.3488   24.3029 C   0  0  0  0  0  0  0  0  0  0  0  0
   17.6147   15.4957   23.7102 H   0  0  0  0  0  0  0  0  0  0  0  0
   16.8269   15.9962   25.2336 H   0  0  0  0  0  0  0  0  0  0  0  0
   16.5450   16.9274   23.7352 H   0  0  0  0  0  0  0  0  0  0  0  0
  1  2  1  0  0  0  0
  1  3  1  0  0  0  0
  1  4  1  0  0  0  0
  4  5  1  0  0  0  0
  4  6  1  0  0  0  0
  4  7  1  0  0  0  0
  7  8  1  0  0  0  0
  7  9  1  0  0  0  0
  7 10  1  0  0  0  0
 10 11  1  0  0  0  0
 10 12  1  0  0  0  0
 10 13  1  0  0  0  0
 13 14  1  0  0  0  0
 13 15  1  0  0  0  0
 13 16  1  0  0  0  0
 16 17  1  0  0  0  0
 16 18  1  0  0  0  0
 16 19  1  0  0  0  0
 19 20  1  0  0  0  0
 19 21  1  0  0  0  0
 19 22  1  0  0  0  0
  1 23  1  0  0  0  0
 23 24  1  0  0  0  0
 23 25  1  0  0  0  0
 23 26  1  0  0  0  0
M  END
> <VConfSearch Rank>
315

> <Conf_Id>
30

> <Delta U+W>
0.910

> <U+W>
22.752

> <U>
71.870

> <W>
-49.118

> <W(PB)>
-51.409

> <W(SA)>
2.290

> <Valence>
2.682

> <Coulomb>
68.933

> <VdW>
0.255

> <VdW6>
-6.833

> <VdW12>
7.088

> <Bond>
0.205

> <Angle>
1.003

> <Pdih>
1.473

> <Idih>
0.000

> <Tether>
0.000

$$$$
VeraChem MOL file


 26 25  0  0  0  0  0  0  0  0999 V2000     
   21.5963   20.6113   25.0063 N   0  3  0  0  0  0  0  0  0  0  0  0
   21.8131   21.4129   24.3936 H   0  0  0  0  0  0  0  0  0  0  0  0
   22.3281   19.9105   24.8110 H   0  0  0  0  0  0  0  0  0  0  0  0
   20.2301   20.0492   24.6680 C   0  0  0  0  0  0  0  0  0  0  0  0
   19.4876   20.8225   24.8804 H   0  0  0  0  0  0  0  0  0  0  0  0
   20.0430   19.2008   25.3311 H   0  0  0  0  0  0  0  0  0  0  0  0
   20.1033   19.5981   23.2017 C   0  0  0  0  0  0  0  0  0  0  0  0
   20.3075   20.4492   22.5386 H   0  0  0  0  0  0  0  0  0  0  0  0
   20.8650   18.8356   22.9952 H   0  0  0  0  0  0  0  0  0  0  0  0
   18.6938   19.0341   22.9059 C   0  0  0  0  0  0  0  0  0  0  0  0
   17.9426   19.7832   23.1927 H   0  0  0  0  0  0  0  0  0  0  0  0
   18.5032   18.1586   23.5409 H   0  0  0  0  0  0  0  0  0  0  0  0
   18.4720   18.6662   21.4157 C   0  0  0  0  0  0  0  0  0  0  0  0
   17.4386   18.3149   21.2898 H   0  0  0  0  0  0  0  0  0  0  0  0
   18.5553   19.5769   20.8067 H   0  0  0  0  0  0  0  0  0  0  0  0
   19.4376   17.5952   20.8467 C   0  0  0  0  0  0  0  0  0  0  0  0
   20.4685   17.9738   20.8478 H   0  0  0  0  0  0  0  0  0  0  0  0
   19.1838   17.4214   19.7916 H   0  0  0  0  0  0  0  0  0  0  0  0
   19.3757   16.2477   21.6013 C   0  0  0  0  0  0  0  0  0  0  0  0
   19.7347   16.3475   22.6332 H   0  0  0  0  0  0  0  0  0  0  0  0
   20.0054   15.4990   21.1037 H   0  0  0  0  0  0  0  0  0  0  0  0
   18.3498   15.8581   21.6298 H   0  0  0  0  0  0  0  0  0  0  0  0
   21.6359   21.0313   26.4691 C   0  0  0  0  0  0  0  0  0  0  0  0
   22.6247   21.4342   26.6995 H   0  0  0  0  0  0  0  0  0  0  0  0
   20.8761   21.7961   26.6439 H   0  0  0  0  0  0  0  0  0  0  0  0
   21.4366   20.1609   27.0982 H   0  0  0  0  0  0  0  0  0  0  0  0
  1  2  1  0  0  0  0
  1  3  1  0  0  0  0
  1  4  1  0  0  0  0
  4  5  1  0  0  0  0
  4  6  1  0  0  0  0
  4  7  1  0  0  0  0
  7  8  1  0  0  0  0
  7  9  1  0  0  0  0
  7 10  1  0  0  0  0
 10 11  1  0  0  0  0
 10 12  1  0  0  0  0
 10 13  1  0  0  0  0
 13 14  1  0  0  0  0
 13 15  1  0  0  0  0
 13 16  1  0  0  0  0
 16 17  1  0  0  0  0
 16 18  1  0  0  0  0
 16 19  1  0  0  0  0
 19 20  1  0  0  0  0
 19 21  1  0  0  0  0
 19 22  1  0  0  0  0
  1 23  1  0  0  0  0
 23 24  1  0  0  0  0
 23 25  1  0  0  0  0
 23 26  1  0  0  0  0
M  END
> <VConfSearch Rank>
316

> <Conf_Id>
29

> <Delta U+W>
0.886

> <U+W>
22.729

> <U>
71.870

> <W>
-49.141

> <W(PB)>
-51.404

> <W(SA)>
2.262

> <Valence>
2.682

> <Coulomb>
68.933

> <VdW>
0.255

> <VdW6>
-6.833

> <VdW12>
7.088

> <Bond>
0.205

> <Angle>
1.003

> <Pdih>
1.473

> <Idih>
0.000

> <Tether>
0.000

$$$$
VeraChem MOL file


 26 25  0  0  0  0  0  0  0  0999 V2000     
   18.4162   17.0106   23.7272 N   0  3  0  0  0  0  0  0  0  0  0  0
   17.4121   17.1600   23.5422 H   0  0  0  0  0  0  0  0  0  0  0  0
   18.5452   17.2206   24.7291 H   0  0  0  0  0  0  0  0  0  0  0  0
   19.2492   17.9539   22.8831 C   0  0  0  0  0  0  0  0  0  0  0  0
   19.0750   17.7076   21.8328 H   0  0  0  0  0  0  0  0  0  0  0  0
   20.3009   17.7652   23.1118 H   0  0  0  0  0  0  0  0  0  0  0  0
   18.9234   19.4395   23.1279 C   0  0  0  0  0  0  0  0  0  0  0  0
   17.8570   19.6111   22.9298 H   0  0  0  0  0  0  0  0  0  0  0  0
   19.0836   19.6843   24.1856 H   0  0  0  0  0  0  0  0  0  0  0  0
   19.7575   20.3891   22.2325 C   0  0  0  0  0  0  0  0  0  0  0  0
   19.4660   21.4272   22.4407 H   0  0  0  0  0  0  0  0  0  0  0  0
   19.4897   20.2121   21.1816 H   0  0  0  0  0  0  0  0  0  0  0  0
   21.2960   20.2419   22.3825 C   0  0  0  0  0  0  0  0  0  0  0  0
   21.6059   19.2550   22.0132 H   0  0  0  0  0  0  0  0  0  0  0  0
   21.7839   20.9703   21.7203 H   0  0  0  0  0  0  0  0  0  0  0  0
   21.8396   20.4322   23.8215 C   0  0  0  0  0  0  0  0  0  0  0  0
   22.9297   20.2938   23.8051 H   0  0  0  0  0  0  0  0  0  0  0  0
   21.4475   19.6478   24.4827 H   0  0  0  0  0  0  0  0  0  0  0  0
   21.5238   21.8229   24.4173 C   0  0  0  0  0  0  0  0  0  0  0  0
   22.0011   21.9383   25.3990 H   0  0  0  0  0  0  0  0  0  0  0  0
   20.4450   21.9663   24.5556 H   0  0  0  0  0  0  0  0  0  0  0  0
   21.8965   22.6246   23.7666 H   0  0  0  0  0  0  0  0  0  0  0  0
   18.8053   15.5692   23.4294 C   0  0  0  0  0  0  0  0  0  0  0  0
   18.1981   14.9002   24.0433 H   0  0  0  0  0  0  0  0  0  0  0  0
   18.6292   15.3608   22.3718 H   0  0  0  0  0  0  0  0  0  0  0  0
   19.8626   15.4268   23.6638 H   0  0  0  0  0  0  0  0  0  0  0  0
  1  2  1  0  0  0  0
  1  3  1  0  0  0  0
  1  4  1  0  0  0  0
  4  5  1  0  0  0  0
  4  6  1  0  0  0  0
  4  7  1  0  0  0  0
  7  8  1  0  0  0  0
  7  9  1  0  0  0  0
  7 10  1  0  0  0  0
 10 11  1  0  0  0  0
 10 12  1  0  0  0  0
 10 13  1  0  0  0  0
 13 14  1  0  0  0  0
 13 15  1  0  0  0  0
 13 16  1  0  0  0  0
 16 17  1  0  0  0  0
 16 18  1  0  0  0  0
 16 19  1  0  0  0  0
 19 20  1  0  0  0  0
 19 21  1  0  0  0  0
 19 22  1  0  0  0  0
  1 23  1  0  0  0  0
 23 24  1  0  0  0  0
 23 25  1  0  0  0  0
 23 26  1  0  0  0  0
M  END
> <VConfSearch Rank>
317

> <Conf_Id>
82

> <Delta U+W>
1.026

> <U+W>
22.868

> <U>
72.455

> <W>
-49.586

> <W(PB)>
-51.821

> <W(SA)>
2.234

> <Valence>
2.908

> <Coulomb>
69.435

> <VdW>
0.112

> <VdW6>
-7.765

> <VdW12>
7.877

> <Bond>
0.233

> <Angle>
1.170

> <Pdih>
1.506

> <Idih>
0.000

> <Tether>
0.000

$$$$
VeraChem MOL file


 26 25  0  0  0  0  0  0  0  0999 V2000     
   19.3041   21.1677   24.7127 N   0  3  0  0  0  0  0  0  0  0  0  0
   18.4389   21.1126   24.1532 H   0  0  0  0  0  0  0  0  0  0  0  0
   19.7322   22.0742   24.4681 H   0  0  0  0  0  0  0  0  0  0  0  0
   20.2382   20.0325   24.3454 C   0  0  0  0  0  0  0  0  0  0  0  0
   19.7465   19.0953   24.6170 H   0  0  0  0  0  0  0  0  0  0  0  0
   21.1439   20.1342   24.9484 H   0  0  0  0  0  0  0  0  0  0  0  0
   20.6107   20.0092   22.8508 C   0  0  0  0  0  0  0  0  0  0  0  0
   19.7005   19.9222   22.2438 H   0  0  0  0  0  0  0  0  0  0  0  0
   21.0714   20.9684   22.5800 H   0  0  0  0  0  0  0  0  0  0  0  0
   21.5935   18.8651   22.4982 C   0  0  0  0  0  0  0  0  0  0  0  0
   22.5436   19.0397   23.0217 H   0  0  0  0  0  0  0  0  0  0  0  0
   21.8329   18.9145   21.4275 H   0  0  0  0  0  0  0  0  0  0  0  0
   21.0884   17.4400   22.8519 C   0  0  0  0  0  0  0  0  0  0  0  0
   21.8509   16.7114   22.5439 H   0  0  0  0  0  0  0  0  0  0  0  0
   21.0104   17.3408   23.9429 H   0  0  0  0  0  0  0  0  0  0  0  0
   19.7323   17.0438   22.2142 C   0  0  0  0  0  0  0  0  0  0  0  0
   18.9310   17.6938   22.5904 H   0  0  0  0  0  0  0  0  0  0  0  0
   19.4741   16.0276   22.5438 H   0  0  0  0  0  0  0  0  0  0  0  0
   19.7486   17.0763   20.6691 C   0  0  0  0  0  0  0  0  0  0  0  0
   19.8952   18.0950   20.2892 H   0  0  0  0  0  0  0  0  0  0  0  0
   18.7964   16.7073   20.2665 H   0  0  0  0  0  0  0  0  0  0  0  0
   20.5503   16.4417   20.2696 H   0  0  0  0  0  0  0  0  0  0  0  0
   18.9826   21.1130   26.1998 C   0  0  0  0  0  0  0  0  0  0  0  0
   19.9089   21.2062   26.7711 H   0  0  0  0  0  0  0  0  0  0  0  0
   18.3097   21.9358   26.4513 H   0  0  0  0  0  0  0  0  0  0  0  0
   18.5011   20.1597   26.4283 H   0  0  0  0  0  0  0  0  0  0  0  0
  1  2  1  0  0  0  0
  1  3  1  0  0  0  0
  1  4  1  0  0  0  0
  4  5  1  0  0  0  0
  4  6  1  0  0  0  0
  4  7  1  0  0  0  0
  7  8  1  0  0  0  0
  7  9  1  0  0  0  0
  7 10  1  0  0  0  0
 10 11  1  0  0  0  0
 10 12  1  0  0  0  0
 10 13  1  0  0  0  0
 13 14  1  0  0  0  0
 13 15  1  0  0  0  0
 13 16  1  0  0  0  0
 16 17  1  0  0  0  0
 16 18  1  0  0  0  0
 16 19  1  0  0  0  0
 19 20  1  0  0  0  0
 19 21  1  0  0  0  0
 19 22  1  0  0  0  0
  1 23  1  0  0  0  0
 23 24  1  0  0  0  0
 23 25  1  0  0  0  0
 23 26  1  0  0  0  0
M  END
> <VConfSearch Rank>
318

> <Conf_Id>
71

> <Delta U+W>
1.096

> <U+W>
22.938

> <U>
72.455

> <W>
-49.517

> <W(PB)>
-51.795

> <W(SA)>
2.278

> <Valence>
2.908

> <Coulomb>
69.435

> <VdW>
0.112

> <VdW6>
-7.766

> <VdW12>
7.877

> <Bond>
0.233

> <Angle>
1.170

> <Pdih>
1.506

> <Idih>
0.000

> <Tether>
0.000

$$$$
VeraChem MOL file


 26 25  0  0  0  0  0  0  0  0999 V2000     
   20.2502   19.8884   25.5876 N   0  3  0  0  0  0  0  0  0  0  0  0
   19.5236   20.2321   24.9421 H   0  0  0  0  0  0  0  0  0  0  0  0
   20.6078   20.7308   26.0654 H   0  0  0  0  0  0  0  0  0  0  0  0
   21.3740   19.2314   24.8020 C   0  0  0  0  0  0  0  0  0  0  0  0
   22.1114   18.8654   25.5208 H   0  0  0  0  0  0  0  0  0  0  0  0
   21.8510   20.0098   24.2016 H   0  0  0  0  0  0  0  0  0  0  0  0
   20.9374   18.0743   23.8748 C   0  0  0  0  0  0  0  0  0  0  0  0
   21.8247   17.6859   23.3577 H   0  0  0  0  0  0  0  0  0  0  0  0
   20.5567   17.2444   24.4841 H   0  0  0  0  0  0  0  0  0  0  0  0
   19.8678   18.4702   22.8257 C   0  0  0  0  0  0  0  0  0  0  0  0
   18.9465   18.7855   23.3334 H   0  0  0  0  0  0  0  0  0  0  0  0
   19.6072   17.5723   22.2506 H   0  0  0  0  0  0  0  0  0  0  0  0
   20.3437   19.5846   21.8592 C   0  0  0  0  0  0  0  0  0  0  0  0
   20.6334   20.4733   22.4350 H   0  0  0  0  0  0  0  0  0  0  0  0
   21.2469   19.2531   21.3285 H   0  0  0  0  0  0  0  0  0  0  0  0
   19.2674   20.0088   20.8304 C   0  0  0  0  0  0  0  0  0  0  0  0
   19.6427   20.8734   20.2651 H   0  0  0  0  0  0  0  0  0  0  0  0
   18.3659   20.3539   21.3556 H   0  0  0  0  0  0  0  0  0  0  0  0
   18.8918   18.8892   19.8330 C   0  0  0  0  0  0  0  0  0  0  0  0
   18.3942   18.0505   20.3353 H   0  0  0  0  0  0  0  0  0  0  0  0
   19.7813   18.5038   19.3181 H   0  0  0  0  0  0  0  0  0  0  0  0
   18.2018   19.2711   19.0694 H   0  0  0  0  0  0  0  0  0  0  0  0
   19.6552   18.9254   26.6084 C   0  0  0  0  0  0  0  0  0  0  0  0
   18.8743   19.4401   27.1726 H   0  0  0  0  0  0  0  0  0  0  0  0
   19.2268   18.0668   26.0875 H   0  0  0  0  0  0  0  0  0  0  0  0
   20.4424   18.5921   27.2881 H   0  0  0  0  0  0  0  0  0  0  0  0
  1  2  1  0  0  0  0
  1  3  1  0  0  0  0
  1  4  1  0  0  0  0
  4  5  1  0  0  0  0
  4  6  1  0  0  0  0
  4  7  1  0  0  0  0
  7  8  1  0  0  0  0
  7  9  1  0  0  0  0
  7 10  1  0  0  0  0
 10 11  1  0  0  0  0
 10 12  1  0  0  0  0
 10 13  1  0  0  0  0
 13 14  1  0  0  0  0
 13 15  1  0  0  0  0
 13 16  1  0  0  0  0
 16 17  1  0  0  0  0
 16 18  1  0  0  0  0
 16 19  1  0  0  0  0
 19 20  1  0  0  0  0
 19 21  1  0  0  0  0
 19 22  1  0  0  0  0
  1 23  1  0  0  0  0
 23 24  1  0  0  0  0
 23 25  1  0  0  0  0
 23 26  1  0  0  0  0
M  END
> <VConfSearch Rank>
319

> <Conf_Id>
84

> <Delta U+W>
1.456

> <U+W>
23.298

> <U>
73.042

> <W>
-49.744

> <W(PB)>
-51.966

> <W(SA)>
2.222

> <Valence>
2.938

> <Coulomb>
69.625

> <VdW>
0.478

> <VdW6>
-8.182

> <VdW12>
8.660

> <Bond>
0.253

> <Angle>
1.038

> <Pdih>
1.647

> <Idih>
0.000

> <Tether>
0.000

$$$$
VeraChem MOL file


 26 25  0  0  0  0  0  0  0  0999 V2000     
   17.8515   18.1769   22.7837 N   0  3  0  0  0  0  0  0  0  0  0  0
   18.0552   18.7589   23.6100 H   0  0  0  0  0  0  0  0  0  0  0  0
   17.5335   17.2687   23.1559 H   0  0  0  0  0  0  0  0  0  0  0  0
   19.1098   17.9906   21.9587 C   0  0  0  0  0  0  0  0  0  0  0  0
   19.4123   18.9698   21.5801 H   0  0  0  0  0  0  0  0  0  0  0  0
   18.8545   17.3602   21.1031 H   0  0  0  0  0  0  0  0  0  0  0  0
   20.2772   17.3491   22.7372 C   0  0  0  0  0  0  0  0  0  0  0  0
   19.9804   16.3448   23.0675 H   0  0  0  0  0  0  0  0  0  0  0  0
   21.1218   17.2074   22.0499 H   0  0  0  0  0  0  0  0  0  0  0  0
   20.7484   18.1734   23.9618 C   0  0  0  0  0  0  0  0  0  0  0  0
   21.5684   17.6310   24.4526 H   0  0  0  0  0  0  0  0  0  0  0  0
   19.9406   18.2379   24.7029 H   0  0  0  0  0  0  0  0  0  0  0  0
   21.2326   19.5958   23.5899 C   0  0  0  0  0  0  0  0  0  0  0  0
   22.0240   19.5271   22.8308 H   0  0  0  0  0  0  0  0  0  0  0  0
   20.4101   20.1681   23.1406 H   0  0  0  0  0  0  0  0  0  0  0  0
   21.7668   20.3607   24.8214 C   0  0  0  0  0  0  0  0  0  0  0  0
   22.5982   19.8021   25.2738 H   0  0  0  0  0  0  0  0  0  0  0  0
   20.9797   20.4308   25.5852 H   0  0  0  0  0  0  0  0  0  0  0  0
   22.2467   21.7799   24.4495 C   0  0  0  0  0  0  0  0  0  0  0  0
   23.0583   21.7415   23.7112 H   0  0  0  0  0  0  0  0  0  0  0  0
   22.6228   22.3067   25.3361 H   0  0  0  0  0  0  0  0  0  0  0  0
   21.4275   22.3757   24.0262 H   0  0  0  0  0  0  0  0  0  0  0  0
   16.7638   18.8180   21.9334 C   0  0  0  0  0  0  0  0  0  0  0  0
   16.5447   18.1696   21.0822 H   0  0  0  0  0  0  0  0  0  0  0  0
   15.8645   18.9472   22.5397 H   0  0  0  0  0  0  0  0  0  0  0  0
   17.1120   19.7903   21.5780 H   0  0  0  0  0  0  0  0  0  0  0  0
  1  2  1  0  0  0  0
  1  3  1  0  0  0  0
  1  4  1  0  0  0  0
  4  5  1  0  0  0  0
  4  6  1  0  0  0  0
  4  7  1  0  0  0  0
  7  8  1  0  0  0  0
  7  9  1  0  0  0  0
  7 10  1  0  0  0  0
 10 11  1  0  0  0  0
 10 12  1  0  0  0  0
 10 13  1  0  0  0  0
 13 14  1  0  0  0  0
 13 15  1  0  0  0  0
 13 16  1  0  0  0  0
 16 17  1  0  0  0  0
 16 18  1  0  0  0  0
 16 19  1  0  0  0  0
 19 20  1  0  0  0  0
 19 21  1  0  0  0  0
 19 22  1  0  0  0  0
  1 23  1  0  0  0  0
 23 24  1  0  0  0  0
 23 25  1  0  0  0  0
 23 26  1  0  0  0  0
M  END
> <VConfSearch Rank>
320

> <Conf_Id>
73

> <Delta U+W>
0.884

> <U+W>
22.726

> <U>
71.905

> <W>
-49.179

> <W(PB)>
-51.494

> <W(SA)>
2.315

> <Valence>
2.125

> <Coulomb>
69.686

> <VdW>
0.093

> <VdW6>
-6.766

> <VdW12>
6.859

> <Bond>
0.169

> <Angle>
0.621

> <Pdih>
1.336

> <Idih>
0.000

> <Tether>
0.000

$$$$
VeraChem MOL file


 26 25  0  0  0  0  0  0  0  0999 V2000     
   18.0037   18.4537   20.8609 N   0  3  0  0  0  0  0  0  0  0  0  0
   18.5085   19.0089   20.1526 H   0  0  0  0  0  0  0  0  0  0  0  0
   17.2475   19.0672   21.2025 H   0  0  0  0  0  0  0  0  0  0  0  0
   18.9347   18.0877   21.9994 C   0  0  0  0  0  0  0  0  0  0  0  0
   19.7226   17.4471   21.5954 H   0  0  0  0  0  0  0  0  0  0  0  0
   18.3613   17.5099   22.7288 H   0  0  0  0  0  0  0  0  0  0  0  0
   19.5646   19.3119   22.6883 C   0  0  0  0  0  0  0  0  0  0  0  0
   20.1259   19.8983   21.9486 H   0  0  0  0  0  0  0  0  0  0  0  0
   18.7691   19.9609   23.0781 H   0  0  0  0  0  0  0  0  0  0  0  0
   20.5042   18.8911   23.8401 C   0  0  0  0  0  0  0  0  0  0  0  0
   21.2955   18.2376   23.4469 H   0  0  0  0  0  0  0  0  0  0  0  0
   19.9403   18.2999   24.5751 H   0  0  0  0  0  0  0  0  0  0  0  0
   21.1427   20.1127   24.5396 C   0  0  0  0  0  0  0  0  0  0  0  0
   21.7067   20.7039   23.8048 H   0  0  0  0  0  0  0  0  0  0  0  0
   20.3516   20.7662   24.9329 H   0  0  0  0  0  0  0  0  0  0  0  0
   22.0823   19.6915   25.6916 C   0  0  0  0  0  0  0  0  0  0  0  0
   22.8770   19.0394   25.3028 H   0  0  0  0  0  0  0  0  0  0  0  0
   21.5221   19.1018   26.4308 H   0  0  0  0  0  0  0  0  0  0  0  0
   22.7180   20.9138   26.3877 C   0  0  0  0  0  0  0  0  0  0  0  0
   23.3813   20.5947   27.2020 H   0  0  0  0  0  0  0  0  0  0  0  0
   21.9484   21.5683   26.8172 H   0  0  0  0  0  0  0  0  0  0  0  0
   23.3139   21.5055   25.6804 H   0  0  0  0  0  0  0  0  0  0  0  0
   17.4261   17.1906   20.2373 C   0  0  0  0  0  0  0  0  0  0  0  0
   16.8692   16.6374   20.9968 H   0  0  0  0  0  0  0  0  0  0  0  0
   16.7578   17.4684   19.4192 H   0  0  0  0  0  0  0  0  0  0  0  0
   18.2419   16.5739   19.8540 H   0  0  0  0  0  0  0  0  0  0  0  0
  1  2  1  0  0  0  0
  1  3  1  0  0  0  0
  1  4  1  0  0  0  0
  4  5  1  0  0  0  0
  4  6  1  0  0  0  0
  4  7  1  0  0  0  0
  7  8  1  0  0  0  0
  7  9  1  0  0  0  0
  7 10  1  0  0  0  0
 10 11  1  0  0  0  0
 10 12  1  0  0  0  0
 10 13  1  0  0  0  0
 13 14  1  0  0  0  0
 13 15  1  0  0  0  0
 13 16  1  0  0  0  0
 16 17  1  0  0  0  0
 16 18  1  0  0  0  0
 16 19  1  0  0  0  0
 19 20  1  0  0  0  0
 19 21  1  0  0  0  0
 19 22  1  0  0  0  0
  1 23  1  0  0  0  0
 23 24  1  0  0  0  0
 23 25  1  0  0  0  0
 23 26  1  0  0  0  0
M  END
> <VConfSearch Rank>
321

> <Conf_Id>
11

> <Delta U+W>
0.000

> <U+W>
21.842

> <U>
70.357

> <W>
-48.515

> <W(PB)>
-50.856

> <W(SA)>
2.341

> <Valence>
1.714

> <Coulomb>
68.480

> <VdW>
0.163

> <VdW6>
-5.268

> <VdW12>
5.431

> <Bond>
0.126

> <Angle>
0.350

> <Pdih>
1.238

> <Idih>
0.000

> <Tether>
0.000

$$$$
VeraChem MOL file


 26 25  0  0  0  0  0  0  0  0999 V2000     
   18.1342   21.8538   22.9790 N   0  3  0  0  0  0  0  0  0  0  0  0
   17.1938   22.1245   22.6496 H   0  0  0  0  0  0  0  0  0  0  0  0
   18.7874   22.3164   22.3279 H   0  0  0  0  0  0  0  0  0  0  0  0
   18.2877   20.3444   22.8934 C   0  0  0  0  0  0  0  0  0  0  0  0
   17.9605   20.0411   21.8956 H   0  0  0  0  0  0  0  0  0  0  0  0
   17.6099   19.8952   23.6236 H   0  0  0  0  0  0  0  0  0  0  0  0
   19.7238   19.8327   23.1266 C   0  0  0  0  0  0  0  0  0  0  0  0
   20.4053   20.3267   22.4215 H   0  0  0  0  0  0  0  0  0  0  0  0
   20.0548   20.1033   24.1377 H   0  0  0  0  0  0  0  0  0  0  0  0
   19.8120   18.3008   22.9486 C   0  0  0  0  0  0  0  0  0  0  0  0
   19.4788   18.0298   21.9370 H   0  0  0  0  0  0  0  0  0  0  0  0
   19.1239   17.8106   23.6515 H   0  0  0  0  0  0  0  0  0  0  0  0
   21.2472   17.7747   23.1784 C   0  0  0  0  0  0  0  0  0  0  0  0
   21.9353   18.2649   22.4758 H   0  0  0  0  0  0  0  0  0  0  0  0
   21.5804   18.0452   24.1900 H   0  0  0  0  0  0  0  0  0  0  0  0
   21.3351   16.2424   23.0003 C   0  0  0  0  0  0  0  0  0  0  0  0
   21.0051   15.9668   21.9888 H   0  0  0  0  0  0  0  0  0  0  0  0
   20.6501   15.7471   23.7028 H   0  0  0  0  0  0  0  0  0  0  0  0
   22.7695   15.7207   23.2305 C   0  0  0  0  0  0  0  0  0  0  0  0
   22.8116   14.6316   23.0997 H   0  0  0  0  0  0  0  0  0  0  0  0
   23.1153   15.9514   24.2466 H   0  0  0  0  0  0  0  0  0  0  0  0
   23.4731   16.1726   22.5192 H   0  0  0  0  0  0  0  0  0  0  0  0
   18.3460   22.3512   24.4045 C   0  0  0  0  0  0  0  0  0  0  0  0
   19.3645   22.1183   24.7215 H   0  0  0  0  0  0  0  0  0  0  0  0
   18.1912   23.4321   24.4323 H   0  0  0  0  0  0  0  0  0  0  0  0
   17.6298   21.8591   25.0663 H   0  0  0  0  0  0  0  0  0  0  0  0
  1  2  1  0  0  0  0
  1  3  1  0  0  0  0
  1  4  1  0  0  0  0
  4  5  1  0  0  0  0
  4  6  1  0  0  0  0
  4  7  1  0  0  0  0
  7  8  1  0  0  0  0
  7  9  1  0  0  0  0
  7 10  1  0  0  0  0
 10 11  1  0  0  0  0
 10 12  1  0  0  0  0
 10 13  1  0  0  0  0
 13 14  1  0  0  0  0
 13 15  1  0  0  0  0
 13 16  1  0  0  0  0
 16 17  1  0  0  0  0
 16 18  1  0  0  0  0
 16 19  1  0  0  0  0
 19 20  1  0  0  0  0
 19 21  1  0  0  0  0
 19 22  1  0  0  0  0
  1 23  1  0  0  0  0
 23 24  1  0  0  0  0
 23 25  1  0  0  0  0
 23 26  1  0  0  0  0
M  END
> <VConfSearch Rank>
322

> <Conf_Id>
102

> <Delta U+W>
0.121

> <U+W>
21.963

> <U>
70.745

> <W>
-48.782

> <W(PB)>
-51.111

> <W(SA)>
2.329

> <Valence>
1.993

> <Coulomb>
68.323

> <VdW>
0.429

> <VdW6>
-5.973

> <VdW12>
6.402

> <Bond>
0.161

> <Angle>
0.472

> <Pdih>
1.360

> <Idih>
0.000

> <Tether>
0.000

$$$$
VeraChem MOL file


 26 25  0  0  0  0  0  0  0  0999 V2000     
   18.7310   21.9417   24.3786 N   0  3  0  0  0  0  0  0  0  0  0  0
   19.6293   22.4478   24.4152 H   0  0  0  0  0  0  0  0  0  0  0  0
   18.2025   22.2779   25.1993 H   0  0  0  0  0  0  0  0  0  0  0  0
   18.9654   20.4454   24.5032 C   0  0  0  0  0  0  0  0  0  0  0  0
   17.9974   19.9450   24.4204 H   0  0  0  0  0  0  0  0  0  0  0  0
   19.3577   20.2609   25.5065 H   0  0  0  0  0  0  0  0  0  0  0  0
   19.9475   19.8627   23.4665 C   0  0  0  0  0  0  0  0  0  0  0  0
   19.5511   20.0130   22.4541 H   0  0  0  0  0  0  0  0  0  0  0  0
   20.9007   20.4047   23.5232 H   0  0  0  0  0  0  0  0  0  0  0  0
   20.1909   18.3561   23.7058 C   0  0  0  0  0  0  0  0  0  0  0  0
   19.2339   17.8182   23.6548 H   0  0  0  0  0  0  0  0  0  0  0  0
   20.5861   18.2054   24.7201 H   0  0  0  0  0  0  0  0  0  0  0  0
   21.1750   17.7594   22.6738 C   0  0  0  0  0  0  0  0  0  0  0  0
   20.7798   17.9096   21.6595 H   0  0  0  0  0  0  0  0  0  0  0  0
   22.1318   18.2973   22.7245 H   0  0  0  0  0  0  0  0  0  0  0  0
   21.4183   16.2526   22.9134 C   0  0  0  0  0  0  0  0  0  0  0  0
   20.4642   15.7095   22.8614 H   0  0  0  0  0  0  0  0  0  0  0  0
   21.8162   16.0972   23.9260 H   0  0  0  0  0  0  0  0  0  0  0  0
   22.4012   15.6602   21.8809 C   0  0  0  0  0  0  0  0  0  0  0  0
   22.0143   15.7697   20.8593 H   0  0  0  0  0  0  0  0  0  0  0  0
   22.5612   14.5904   22.0673 H   0  0  0  0  0  0  0  0  0  0  0  0
   23.3770   16.1605   21.9323 H   0  0  0  0  0  0  0  0  0  0  0  0
   17.9707   22.2776   23.1005 C   0  0  0  0  0  0  0  0  0  0  0  0
   17.0182   21.7432   23.0987 H   0  0  0  0  0  0  0  0  0  0  0  0
   17.7894   23.3542   23.0653 H   0  0  0  0  0  0  0  0  0  0  0  0
   18.5660   21.9776   22.2358 H   0  0  0  0  0  0  0  0  0  0  0  0
  1  2  1  0  0  0  0
  1  3  1  0  0  0  0
  1  4  1  0  0  0  0
  4  5  1  0  0  0  0
  4  6  1  0  0  0  0
  4  7  1  0  0  0  0
  7  8  1  0  0  0  0
  7  9  1  0  0  0  0
  7 10  1  0  0  0  0
 10 11  1  0  0  0  0
 10 12  1  0  0  0  0
 10 13  1  0  0  0  0
 13 14  1  0  0  0  0
 13 15  1  0  0  0  0
 13 16  1  0  0  0  0
 16 17  1  0  0  0  0
 16 18  1  0  0  0  0
 16 19  1  0  0  0  0
 19 20  1  0  0  0  0
 19 21  1  0  0  0  0
 19 22  1  0  0  0  0
  1 23  1  0  0  0  0
 23 24  1  0  0  0  0
 23 25  1  0  0  0  0
 23 26  1  0  0  0  0
M  END
> <VConfSearch Rank>
323

> <Conf_Id>
37

> <Delta U+W>
0.125

> <U+W>
21.967

> <U>
70.745

> <W>
-48.778

> <W(PB)>
-51.115

> <W(SA)>
2.337

> <Valence>
1.993

> <Coulomb>
68.323

> <VdW>
0.429

> <VdW6>
-5.973

> <VdW12>
6.403

> <Bond>
0.161

> <Angle>
0.472

> <Pdih>
1.360

> <Idih>
0.000

> <Tether>
0.000

$$$$
VeraChem MOL file


 26 25  0  0  0  0  0  0  0  0999 V2000     
   19.3321   16.1792   22.7879 N   0  3  0  0  0  0  0  0  0  0  0  0
   18.8549   16.0701   21.8795 H   0  0  0  0  0  0  0  0  0  0  0  0
   18.5877   16.1092   23.4991 H   0  0  0  0  0  0  0  0  0  0  0  0
   20.0040   17.5353   22.8660 C   0  0  0  0  0  0  0  0  0  0  0  0
   20.7754   17.5723   22.0926 H   0  0  0  0  0  0  0  0  0  0  0  0
   20.4900   17.6095   23.8416 H   0  0  0  0  0  0  0  0  0  0  0  0
   19.0257   18.7110   22.6787 C   0  0  0  0  0  0  0  0  0  0  0  0
   18.5106   18.5975   21.7155 H   0  0  0  0  0  0  0  0  0  0  0  0
   18.2505   18.6746   23.4557 H   0  0  0  0  0  0  0  0  0  0  0  0
   19.7298   20.0883   22.7107 C   0  0  0  0  0  0  0  0  0  0  0  0
   18.9889   20.8584   22.4595 H   0  0  0  0  0  0  0  0  0  0  0  0
   20.4968   20.1259   21.9248 H   0  0  0  0  0  0  0  0  0  0  0  0
   20.3711   20.4119   24.0844 C   0  0  0  0  0  0  0  0  0  0  0  0
   19.5999   20.3943   24.8668 H   0  0  0  0  0  0  0  0  0  0  0  0
   21.0943   19.6284   24.3461 H   0  0  0  0  0  0  0  0  0  0  0  0
   21.1061   21.7742   24.1155 C   0  0  0  0  0  0  0  0  0  0  0  0
   21.8867   21.7934   23.3422 H   0  0  0  0  0  0  0  0  0  0  0  0
   21.6264   21.8711   25.0787 H   0  0  0  0  0  0  0  0  0  0  0  0
   20.1653   22.9875   23.9356 C   0  0  0  0  0  0  0  0  0  0  0  0
   19.7154   23.0055   22.9354 H   0  0  0  0  0  0  0  0  0  0  0  0
   20.7205   23.9258   24.0632 H   0  0  0  0  0  0  0  0  0  0  0  0
   19.3561   22.9736   24.6773 H   0  0  0  0  0  0  0  0  0  0  0  0
   20.3642   15.0776   22.9848 C   0  0  0  0  0  0  0  0  0  0  0  0
   20.8315   15.1941   23.9651 H   0  0  0  0  0  0  0  0  0  0  0  0
   19.8674   14.1066   22.9260 H   0  0  0  0  0  0  0  0  0  0  0  0
   21.1225   15.1518   22.2021 H   0  0  0  0  0  0  0  0  0  0  0  0
  1  2  1  0  0  0  0
  1  3  1  0  0  0  0
  1  4  1  0  0  0  0
  4  5  1  0  0  0  0
  4  6  1  0  0  0  0
  4  7  1  0  0  0  0
  7  8  1  0  0  0  0
  7  9  1  0  0  0  0
  7 10  1  0  0  0  0
 10 11  1  0  0  0  0
 10 12  1  0  0  0  0
 10 13  1  0  0  0  0
 13 14  1  0  0  0  0
 13 15  1  0  0  0  0
 13 16  1  0  0  0  0
 16 17  1  0  0  0  0
 16 18  1  0  0  0  0
 16 19  1  0  0  0  0
 19 20  1  0  0  0  0
 19 21  1  0  0  0  0
 19 22  1  0  0  0  0
  1 23  1  0  0  0  0
 23 24  1  0  0  0  0
 23 25  1  0  0  0  0
 23 26  1  0  0  0  0
M  END
> <VConfSearch Rank>
324

> <Conf_Id>
137

> <Delta U+W>
1.038

> <U+W>
22.880

> <U>
71.810

> <W>
-48.930

> <W(PB)>
-51.257

> <W(SA)>
2.327

> <Valence>
2.568

> <Coulomb>
68.877

> <VdW>
0.364

> <VdW6>
-6.470

> <VdW12>
6.834

> <Bond>
0.191

> <Angle>
0.752

> <Pdih>
1.626

> <Idih>
0.000

> <Tether>
0.000

$$$$
VeraChem MOL file


 26 25  0  0  0  0  0  0  0  0999 V2000     
   17.8150   17.9125   24.8379 N   0  3  0  0  0  0  0  0  0  0  0  0
   17.9223   18.7081   25.4863 H   0  0  0  0  0  0  0  0  0  0  0  0
   18.3656   17.1444   25.2522 H   0  0  0  0  0  0  0  0  0  0  0  0
   18.3649   18.2727   23.4723 C   0  0  0  0  0  0  0  0  0  0  0  0
   17.7616   19.0920   23.0733 H   0  0  0  0  0  0  0  0  0  0  0  0
   18.2398   17.4040   22.8210 H   0  0  0  0  0  0  0  0  0  0  0  0
   19.8470   18.6881   23.5027 C   0  0  0  0  0  0  0  0  0  0  0  0
   19.9628   19.5483   24.1739 H   0  0  0  0  0  0  0  0  0  0  0  0
   20.4470   17.8681   23.9193 H   0  0  0  0  0  0  0  0  0  0  0  0
   20.3611   19.0428   22.0874 C   0  0  0  0  0  0  0  0  0  0  0  0
   19.7932   19.8955   21.6898 H   0  0  0  0  0  0  0  0  0  0  0  0
   20.1604   18.1984   21.4133 H   0  0  0  0  0  0  0  0  0  0  0  0
   21.8762   19.3602   22.0389 C   0  0  0  0  0  0  0  0  0  0  0  0
   22.4451   18.5009   22.4199 H   0  0  0  0  0  0  0  0  0  0  0  0
   22.1723   19.4833   20.9879 H   0  0  0  0  0  0  0  0  0  0  0  0
   22.2682   20.6348   22.8236 C   0  0  0  0  0  0  0  0  0  0  0  0
   22.0535   20.5038   23.8925 H   0  0  0  0  0  0  0  0  0  0  0  0
   21.6624   21.4844   22.4786 H   0  0  0  0  0  0  0  0  0  0  0  0
   23.7650   20.9713   22.6520 C   0  0  0  0  0  0  0  0  0  0  0  0
   24.3981   20.1518   23.0164 H   0  0  0  0  0  0  0  0  0  0  0  0
   24.0264   21.8755   23.2169 H   0  0  0  0  0  0  0  0  0  0  0  0
   24.0115   21.1507   21.5973 H   0  0  0  0  0  0  0  0  0  0  0  0
   16.3502   17.5152   24.7182 C   0  0  0  0  0  0  0  0  0  0  0  0
   16.2653   16.6520   24.0544 H   0  0  0  0  0  0  0  0  0  0  0  0
   15.9666   17.2584   25.7081 H   0  0  0  0  0  0  0  0  0  0  0  0
   15.7828   18.3540   24.3090 H   0  0  0  0  0  0  0  0  0  0  0  0
  1  2  1  0  0  0  0
  1  3  1  0  0  0  0
  1  4  1  0  0  0  0
  4  5  1  0  0  0  0
  4  6  1  0  0  0  0
  4  7  1  0  0  0  0
  7  8  1  0  0  0  0
  7  9  1  0  0  0  0
  7 10  1  0  0  0  0
 10 11  1  0  0  0  0
 10 12  1  0  0  0  0
 10 13  1  0  0  0  0
 13 14  1  0  0  0  0
 13 15  1  0  0  0  0
 13 16  1  0  0  0  0
 16 17  1  0  0  0  0
 16 18  1  0  0  0  0
 16 19  1  0  0  0  0
 19 20  1  0  0  0  0
 19 21  1  0  0  0  0
 19 22  1  0  0  0  0
  1 23  1  0  0  0  0
 23 24  1  0  0  0  0
 23 25  1  0  0  0  0
 23 26  1  0  0  0  0
M  END
> <VConfSearch Rank>
325

> <Conf_Id>
35

> <Delta U+W>
0.670

> <U+W>
22.512

> <U>
71.348

> <W>
-48.837

> <W(PB)>
-51.150

> <W(SA)>
2.313

> <Valence>
2.262

> <Coulomb>
68.807

> <VdW>
0.280

> <VdW6>
-5.915

> <VdW12>
6.195

> <Bond>
0.164

> <Angle>
0.622

> <Pdih>
1.475

> <Idih>
0.000

> <Tether>
0.000

$$$$
VeraChem MOL file


 26 25  0  0  0  0  0  0  0  0999 V2000     
   21.9028   19.6480   21.0640 N   0  3  0  0  0  0  0  0  0  0  0  0
   21.3782   20.4645   20.7133 H   0  0  0  0  0  0  0  0  0  0  0  0
   21.4983   18.8324   20.5782 H   0  0  0  0  0  0  0  0  0  0  0  0
   21.7162   19.5104   22.5617 C   0  0  0  0  0  0  0  0  0  0  0  0
   22.1493   20.3947   23.0359 H   0  0  0  0  0  0  0  0  0  0  0  0
   22.2787   18.6329   22.8905 H   0  0  0  0  0  0  0  0  0  0  0  0
   20.2418   19.3674   22.9812 C   0  0  0  0  0  0  0  0  0  0  0  0
   19.6776   20.2434   22.6345 H   0  0  0  0  0  0  0  0  0  0  0  0
   19.8132   18.4880   22.4844 H   0  0  0  0  0  0  0  0  0  0  0  0
   20.1040   19.2329   24.5161 C   0  0  0  0  0  0  0  0  0  0  0  0
   20.6115   20.0818   24.9953 H   0  0  0  0  0  0  0  0  0  0  0  0
   20.6276   18.3291   24.8575 H   0  0  0  0  0  0  0  0  0  0  0  0
   18.6354   19.1987   25.0067 C   0  0  0  0  0  0  0  0  0  0  0  0
   18.6351   19.2209   26.1053 H   0  0  0  0  0  0  0  0  0  0  0  0
   18.1165   20.1107   24.6807 H   0  0  0  0  0  0  0  0  0  0  0  0
   17.8510   17.9533   24.5294 C   0  0  0  0  0  0  0  0  0  0  0  0
   18.3960   17.0411   24.8100 H   0  0  0  0  0  0  0  0  0  0  0  0
   17.7704   17.9520   23.4343 H   0  0  0  0  0  0  0  0  0  0  0  0
   16.4319   17.9076   25.1352 C   0  0  0  0  0  0  0  0  0  0  0  0
   16.4711   17.8660   26.2316 H   0  0  0  0  0  0  0  0  0  0  0  0
   15.8889   17.0204   24.7843 H   0  0  0  0  0  0  0  0  0  0  0  0
   15.8511   18.7936   24.8473 H   0  0  0  0  0  0  0  0  0  0  0  0
   23.3834   19.7840   20.7368 C   0  0  0  0  0  0  0  0  0  0  0  0
   23.9119   18.8947   21.0873 H   0  0  0  0  0  0  0  0  0  0  0  0
   23.5038   19.8824   19.6556 H   0  0  0  0  0  0  0  0  0  0  0  0
   23.7812   20.6712   21.2344 H   0  0  0  0  0  0  0  0  0  0  0  0
  1  2  1  0  0  0  0
  1  3  1  0  0  0  0
  1  4  1  0  0  0  0
  4  5  1  0  0  0  0
  4  6  1  0  0  0  0
  4  7  1  0  0  0  0
  7  8  1  0  0  0  0
  7  9  1  0  0  0  0
  7 10  1  0  0  0  0
 10 11  1  0  0  0  0
 10 12  1  0  0  0  0
 10 13  1  0  0  0  0
 13 14  1  0  0  0  0
 13 15  1  0  0  0  0
 13 16  1  0  0  0  0
 16 17  1  0  0  0  0
 16 18  1  0  0  0  0
 16 19  1  0  0  0  0
 19 20  1  0  0  0  0
 19 21  1  0  0  0  0
 19 22  1  0  0  0  0
  1 23  1  0  0  0  0
 23 24  1  0  0  0  0
 23 25  1  0  0  0  0
 23 26  1  0  0  0  0
M  END
> <VConfSearch Rank>
326

> <Conf_Id>
36

> <Delta U+W>
0.662

> <U+W>
22.504

> <U>
71.348

> <W>
-48.844

> <W(PB)>
-51.157

> <W(SA)>
2.313

> <Valence>
2.262

> <Coulomb>
68.807

> <VdW>
0.280

> <VdW6>
-5.916

> <VdW12>
6.195

> <Bond>
0.164

> <Angle>
0.622

> <Pdih>
1.475

> <Idih>
0.000

> <Tether>
0.000

$$$$
VeraChem MOL file


 26 25  0  0  0  0  0  0  0  0999 V2000     
   20.7314   16.8816   25.2497 N   0  3  0  0  0  0  0  0  0  0  0  0
   21.2862   16.2969   24.6054 H   0  0  0  0  0  0  0  0  0  0  0  0
   19.9371   16.2909   25.5413 H   0  0  0  0  0  0  0  0  0  0  0  0
   20.2281   18.1179   24.5322 C   0  0  0  0  0  0  0  0  0  0  0  0
   21.0985   18.7091   24.2380 H   0  0  0  0  0  0  0  0  0  0  0  0
   19.6388   18.7019   25.2436 H   0  0  0  0  0  0  0  0  0  0  0  0
   19.3725   17.7959   23.2918 C   0  0  0  0  0  0  0  0  0  0  0  0
   19.9641   17.2076   22.5777 H   0  0  0  0  0  0  0  0  0  0  0  0
   18.5259   17.1651   23.5938 H   0  0  0  0  0  0  0  0  0  0  0  0
   18.8290   19.0656   22.5949 C   0  0  0  0  0  0  0  0  0  0  0  0
   18.2148   19.6382   23.3038 H   0  0  0  0  0  0  0  0  0  0  0  0
   18.1583   18.7601   21.7798 H   0  0  0  0  0  0  0  0  0  0  0  0
   19.9464   19.9707   22.0221 C   0  0  0  0  0  0  0  0  0  0  0  0
   20.5965   20.3242   22.8337 H   0  0  0  0  0  0  0  0  0  0  0  0
   20.5787   19.3863   21.3394 H   0  0  0  0  0  0  0  0  0  0  0  0
   19.3683   21.1900   21.2696 C   0  0  0  0  0  0  0  0  0  0  0  0
   18.7340   21.7780   21.9479 H   0  0  0  0  0  0  0  0  0  0  0  0
   18.7222   20.8480   20.4489 H   0  0  0  0  0  0  0  0  0  0  0  0
   20.4835   22.0928   20.7003 C   0  0  0  0  0  0  0  0  0  0  0  0
   21.1264   22.4796   21.5018 H   0  0  0  0  0  0  0  0  0  0  0  0
   20.0535   22.9521   20.1696 H   0  0  0  0  0  0  0  0  0  0  0  0
   21.1150   21.5412   19.9918 H   0  0  0  0  0  0  0  0  0  0  0  0
   21.5667   17.2870   26.4563 C   0  0  0  0  0  0  0  0  0  0  0  0
   20.9498   17.8760   27.1386 H   0  0  0  0  0  0  0  0  0  0  0  0
   21.9226   16.3878   26.9640 H   0  0  0  0  0  0  0  0  0  0  0  0
   22.4184   17.8822   26.1199 H   0  0  0  0  0  0  0  0  0  0  0  0
  1  2  1  0  0  0  0
  1  3  1  0  0  0  0
  1  4  1  0  0  0  0
  4  5  1  0  0  0  0
  4  6  1  0  0  0  0
  4  7  1  0  0  0  0
  7  8  1  0  0  0  0
  7  9  1  0  0  0  0
  7 10  1  0  0  0  0
 10 11  1  0  0  0  0
 10 12  1  0  0  0  0
 10 13  1  0  0  0  0
 13 14  1  0  0  0  0
 13 15  1  0  0  0  0
 13 16  1  0  0  0  0
 16 17  1  0  0  0  0
 16 18  1  0  0  0  0
 16 19  1  0  0  0  0
 19 20  1  0  0  0  0
 19 21  1  0  0  0  0
 19 22  1  0  0  0  0
  1 23  1  0  0  0  0
 23 24  1  0  0  0  0
 23 25  1  0  0  0  0
 23 26  1  0  0  0  0
M  END
> <VConfSearch Rank>
327

> <Conf_Id>
46

> <Delta U+W>
0.496

> <U+W>
22.338

> <U>
71.138

> <W>
-48.799

> <W(PB)>
-51.136

> <W(SA)>
2.337

> <Valence>
2.016

> <Coulomb>
68.932

> <VdW>
0.190

> <VdW6>
-5.902

> <VdW12>
6.092

> <Bond>
0.149

> <Angle>
0.477

> <Pdih>
1.390

> <Idih>
0.000

> <Tether>
0.000

$$$$
VeraChem MOL file


 26 25  0  0  0  0  0  0  0  0999 V2000     
   22.0237   20.2777   25.1386 N   0  3  0  0  0  0  0  0  0  0  0  0
   21.6726   20.8711   25.9063 H   0  0  0  0  0  0  0  0  0  0  0  0
   22.4376   20.9302   24.4547 H   0  0  0  0  0  0  0  0  0  0  0  0
   20.8800   19.5117   24.5047 C   0  0  0  0  0  0  0  0  0  0  0  0
   20.4640   18.8426   25.2622 H   0  0  0  0  0  0  0  0  0  0  0  0
   21.2943   18.9034   23.6973 H   0  0  0  0  0  0  0  0  0  0  0  0
   19.7681   20.4244   23.9525 C   0  0  0  0  0  0  0  0  0  0  0  0
   19.3907   21.0612   24.7637 H   0  0  0  0  0  0  0  0  0  0  0  0
   20.1865   21.0979   23.1927 H   0  0  0  0  0  0  0  0  0  0  0  0
   18.5870   19.6286   23.3482 C   0  0  0  0  0  0  0  0  0  0  0  0
   17.7970   20.3358   23.0597 H   0  0  0  0  0  0  0  0  0  0  0  0
   18.1530   18.9758   24.1183 H   0  0  0  0  0  0  0  0  0  0  0  0
   18.9900   18.7849   22.1146 C   0  0  0  0  0  0  0  0  0  0  0  0
   19.4540   19.4354   21.3603 H   0  0  0  0  0  0  0  0  0  0  0  0
   19.7446   18.0395   22.3995 H   0  0  0  0  0  0  0  0  0  0  0  0
   17.7748   18.0619   21.4919 C   0  0  0  0  0  0  0  0  0  0  0  0
   17.0159   18.7993   21.1947 H   0  0  0  0  0  0  0  0  0  0  0  0
   17.3061   17.4102   22.2426 H   0  0  0  0  0  0  0  0  0  0  0  0
   18.1781   17.2195   20.2628 C   0  0  0  0  0  0  0  0  0  0  0  0
   18.6196   17.8496   19.4798 H   0  0  0  0  0  0  0  0  0  0  0  0
   17.3024   16.7146   19.8346 H   0  0  0  0  0  0  0  0  0  0  0  0
   18.9110   16.4489   20.5353 H   0  0  0  0  0  0  0  0  0  0  0  0
   23.0758   19.3053   25.6536 C   0  0  0  0  0  0  0  0  0  0  0  0
   23.8935   19.8697   26.1076 H   0  0  0  0  0  0  0  0  0  0  0  0
   22.6230   18.6478   26.3989 H   0  0  0  0  0  0  0  0  0  0  0  0
   23.4560   18.7122   24.8189 H   0  0  0  0  0  0  0  0  0  0  0  0
  1  2  1  0  0  0  0
  1  3  1  0  0  0  0
  1  4  1  0  0  0  0
  4  5  1  0  0  0  0
  4  6  1  0  0  0  0
  4  7  1  0  0  0  0
  7  8  1  0  0  0  0
  7  9  1  0  0  0  0
  7 10  1  0  0  0  0
 10 11  1  0  0  0  0
 10 12  1  0  0  0  0
 10 13  1  0  0  0  0
 13 14  1  0  0  0  0
 13 15  1  0  0  0  0
 13 16  1  0  0  0  0
 16 17  1  0  0  0  0
 16 18  1  0  0  0  0
 16 19  1  0  0  0  0
 19 20  1  0  0  0  0
 19 21  1  0  0  0  0
 19 22  1  0  0  0  0
  1 23  1  0  0  0  0
 23 24  1  0  0  0  0
 23 25  1  0  0  0  0
 23 26  1  0  0  0  0
M  END
> <VConfSearch Rank>
328

> <Conf_Id>
45

> <Delta U+W>
0.471

> <U+W>
22.313

> <U>
71.138

> <W>
-48.825

> <W(PB)>
-51.169

> <W(SA)>
2.344

> <Valence>
2.016

> <Coulomb>
68.932

> <VdW>
0.190

> <VdW6>
-5.902

> <VdW12>
6.092

> <Bond>
0.149

> <Angle>
0.477

> <Pdih>
1.390

> <Idih>
0.000

> <Tether>
0.000

$$$$
VeraChem MOL file


 26 25  0  0  0  0  0  0  0  0999 V2000     
   19.6068   19.3930   25.8242 N   0  3  0  0  0  0  0  0  0  0  0  0
   19.6656   18.3828   25.6260 H   0  0  0  0  0  0  0  0  0  0  0  0
   18.6545   19.6749   25.5446 H   0  0  0  0  0  0  0  0  0  0  0  0
   20.6361   20.1453   25.0030 C   0  0  0  0  0  0  0  0  0  0  0  0
   21.6281   19.8141   25.3202 H   0  0  0  0  0  0  0  0  0  0  0  0
   20.5378   21.2070   25.2431 H   0  0  0  0  0  0  0  0  0  0  0  0
   20.4857   19.9491   23.4816 C   0  0  0  0  0  0  0  0  0  0  0  0
   19.4879   20.2859   23.1735 H   0  0  0  0  0  0  0  0  0  0  0  0
   21.2089   20.6014   22.9746 H   0  0  0  0  0  0  0  0  0  0  0  0
   20.7230   18.4817   23.0446 C   0  0  0  0  0  0  0  0  0  0  0  0
   19.9502   17.8300   23.4737 H   0  0  0  0  0  0  0  0  0  0  0  0
   21.6820   18.1376   23.4564 H   0  0  0  0  0  0  0  0  0  0  0  0
   20.7534   18.2931   21.5078 C   0  0  0  0  0  0  0  0  0  0  0  0
   21.5412   18.9247   21.0743 H   0  0  0  0  0  0  0  0  0  0  0  0
   21.0376   17.2543   21.2899 H   0  0  0  0  0  0  0  0  0  0  0  0
   19.4017   18.5994   20.8199 C   0  0  0  0  0  0  0  0  0  0  0  0
   19.1348   19.6552   20.9609 H   0  0  0  0  0  0  0  0  0  0  0  0
   18.6043   18.0040   21.2863 H   0  0  0  0  0  0  0  0  0  0  0  0
   19.4502   18.2932   19.3077 C   0  0  0  0  0  0  0  0  0  0  0  0
   20.2190   18.8963   18.8073 H   0  0  0  0  0  0  0  0  0  0  0  0
   18.4852   18.5185   18.8353 H   0  0  0  0  0  0  0  0  0  0  0  0
   19.6745   17.2341   19.1257 H   0  0  0  0  0  0  0  0  0  0  0  0
   19.8302   19.6598   27.3062 C   0  0  0  0  0  0  0  0  0  0  0  0
   19.7322   20.7308   27.4969 H   0  0  0  0  0  0  0  0  0  0  0  0
   19.0835   19.1122   27.8855 H   0  0  0  0  0  0  0  0  0  0  0  0
   20.8317   19.3245   27.5846 H   0  0  0  0  0  0  0  0  0  0  0  0
  1  2  1  0  0  0  0
  1  3  1  0  0  0  0
  1  4  1  0  0  0  0
  4  5  1  0  0  0  0
  4  6  1  0  0  0  0
  4  7  1  0  0  0  0
  7  8  1  0  0  0  0
  7  9  1  0  0  0  0
  7 10  1  0  0  0  0
 10 11  1  0  0  0  0
 10 12  1  0  0  0  0
 10 13  1  0  0  0  0
 13 14  1  0  0  0  0
 13 15  1  0  0  0  0
 13 16  1  0  0  0  0
 16 17  1  0  0  0  0
 16 18  1  0  0  0  0
 16 19  1  0  0  0  0
 19 20  1  0  0  0  0
 19 21  1  0  0  0  0
 19 22  1  0  0  0  0
  1 23  1  0  0  0  0
 23 24  1  0  0  0  0
 23 25  1  0  0  0  0
 23 26  1  0  0  0  0
M  END
> <VConfSearch Rank>
329

> <Conf_Id>
143

> <Delta U+W>
0.915

> <U+W>
22.757

> <U>
71.994

> <W>
-49.237

> <W(PB)>
-51.537

> <W(SA)>
2.300

> <Valence>
2.376

> <Coulomb>
69.315

> <VdW>
0.303

> <VdW6>
-6.508

> <VdW12>
6.810

> <Bond>
0.182

> <Angle>
0.660

> <Pdih>
1.534

> <Idih>
0.000

> <Tether>
0.000

$$$$
VeraChem MOL file


 26 25  0  0  0  0  0  0  0  0999 V2000     
   17.8640   20.1033   24.3452 N   0  3  0  0  0  0  0  0  0  0  0  0
   18.5041   20.9096   24.3993 H   0  0  0  0  0  0  0  0  0  0  0  0
   17.9816   19.5967   25.2364 H   0  0  0  0  0  0  0  0  0  0  0  0
   18.2483   19.2089   23.1821 C   0  0  0  0  0  0  0  0  0  0  0  0
   18.1210   19.7805   22.2594 H   0  0  0  0  0  0  0  0  0  0  0  0
   17.5445   18.3728   23.1651 H   0  0  0  0  0  0  0  0  0  0  0  0
   19.6874   18.6617   23.2595 C   0  0  0  0  0  0  0  0  0  0  0  0
   19.8220   18.1134   24.2012 H   0  0  0  0  0  0  0  0  0  0  0  0
   19.8137   17.9368   22.4461 H   0  0  0  0  0  0  0  0  0  0  0  0
   20.7580   19.7726   23.1296 C   0  0  0  0  0  0  0  0  0  0  0  0
   20.5683   20.5533   23.8778 H   0  0  0  0  0  0  0  0  0  0  0  0
   20.6601   20.2592   22.1493 H   0  0  0  0  0  0  0  0  0  0  0  0
   22.2167   19.2797   23.3156 C   0  0  0  0  0  0  0  0  0  0  0  0
   22.8732   20.1581   23.2455 H   0  0  0  0  0  0  0  0  0  0  0  0
   22.3564   18.8882   24.3327 H   0  0  0  0  0  0  0  0  0  0  0  0
   22.6927   18.2382   22.2699 C   0  0  0  0  0  0  0  0  0  0  0  0
   23.7534   18.4235   22.0493 H   0  0  0  0  0  0  0  0  0  0  0  0
   22.1587   18.3784   21.3198 H   0  0  0  0  0  0  0  0  0  0  0  0
   22.5561   16.7754   22.7537 C   0  0  0  0  0  0  0  0  0  0  0  0
   21.5170   16.5083   22.9749 H   0  0  0  0  0  0  0  0  0  0  0  0
   23.1484   16.6066   23.6624 H   0  0  0  0  0  0  0  0  0  0  0  0
   22.9213   16.0814   21.9857 H   0  0  0  0  0  0  0  0  0  0  0  0
   16.4254   20.5742   24.1835 C   0  0  0  0  0  0  0  0  0  0  0  0
   15.7636   19.7056   24.1609 H   0  0  0  0  0  0  0  0  0  0  0  0
   16.1619   21.2168   25.0266 H   0  0  0  0  0  0  0  0  0  0  0  0
   16.3335   21.1340   23.2501 H   0  0  0  0  0  0  0  0  0  0  0  0
  1  2  1  0  0  0  0
  1  3  1  0  0  0  0
  1  4  1  0  0  0  0
  4  5  1  0  0  0  0
  4  6  1  0  0  0  0
  4  7  1  0  0  0  0
  7  8  1  0  0  0  0
  7  9  1  0  0  0  0
  7 10  1  0  0  0  0
 10 11  1  0  0  0  0
 10 12  1  0  0  0  0
 10 13  1  0  0  0  0
 13 14  1  0  0  0  0
 13 15  1  0  0  0  0
 13 16  1  0  0  0  0
 16 17  1  0  0  0  0
 16 18  1  0  0  0  0
 16 19  1  0  0  0  0
 19 20  1  0  0  0  0
 19 21  1  0  0  0  0
 19 22  1  0  0  0  0
  1 23  1  0  0  0  0
 23 24  1  0  0  0  0
 23 25  1  0  0  0  0
 23 26  1  0  0  0  0
M  END
> <VConfSearch Rank>
330

> <Conf_Id>
76

> <Delta U+W>
3.468

> <U+W>
25.310

> <U>
74.594

> <W>
-49.283

> <W(PB)>
-51.537

> <W(SA)>
2.253

> <Valence>
4.886

> <Coulomb>
69.332

> <VdW>
0.376

> <VdW6>
-7.329

> <VdW12>
7.705

> <Bond>
0.232

> <Angle>
1.251

> <Pdih>
3.403

> <Idih>
0.000

> <Tether>
0.000

$$$$
VeraChem MOL file


 26 25  0  0  0  0  0  0  0  0999 V2000     
   20.2605   16.3503   22.8106 N   0  3  0  0  0  0  0  0  0  0  0  0
   20.1126   16.6327   21.8292 H   0  0  0  0  0  0  0  0  0  0  0  0
   19.3406   16.0221   23.1436 H   0  0  0  0  0  0  0  0  0  0  0  0
   20.7213   17.5370   23.6329 C   0  0  0  0  0  0  0  0  0  0  0  0
   21.6915   17.8573   23.2448 H   0  0  0  0  0  0  0  0  0  0  0  0
   20.8573   17.1984   24.6631 H   0  0  0  0  0  0  0  0  0  0  0  0
   19.7357   18.7192   23.6020 C   0  0  0  0  0  0  0  0  0  0  0  0
   19.5855   19.0356   22.5638 H   0  0  0  0  0  0  0  0  0  0  0  0
   18.7588   18.3864   23.9771 H   0  0  0  0  0  0  0  0  0  0  0  0
   20.2453   19.8995   24.4637 C   0  0  0  0  0  0  0  0  0  0  0  0
   21.2488   20.2066   24.1381 H   0  0  0  0  0  0  0  0  0  0  0  0
   20.3580   19.5433   25.4973 H   0  0  0  0  0  0  0  0  0  0  0  0
   19.2895   21.1214   24.4674 C   0  0  0  0  0  0  0  0  0  0  0  0
   18.2494   20.7931   24.3350 H   0  0  0  0  0  0  0  0  0  0  0  0
   19.3286   21.5829   25.4640 H   0  0  0  0  0  0  0  0  0  0  0  0
   19.6372   22.2212   23.4316 C   0  0  0  0  0  0  0  0  0  0  0  0
   20.6411   22.6179   23.6381 H   0  0  0  0  0  0  0  0  0  0  0  0
   18.9440   23.0626   23.5714 H   0  0  0  0  0  0  0  0  0  0  0  0
   19.5623   21.7583   21.9601 C   0  0  0  0  0  0  0  0  0  0  0  0
   18.5922   21.2949   21.7388 H   0  0  0  0  0  0  0  0  0  0  0  0
   20.3563   21.0380   21.7278 H   0  0  0  0  0  0  0  0  0  0  0  0
   19.6882   22.6128   21.2827 H   0  0  0  0  0  0  0  0  0  0  0  0
   21.2891   15.2311   22.8948 C   0  0  0  0  0  0  0  0  0  0  0  0
   22.2445   15.5914   22.5068 H   0  0  0  0  0  0  0  0  0  0  0  0
   21.4041   14.9267   23.9374 H   0  0  0  0  0  0  0  0  0  0  0  0
   20.9452   14.3829   22.2986 H   0  0  0  0  0  0  0  0  0  0  0  0
  1  2  1  0  0  0  0
  1  3  1  0  0  0  0
  1  4  1  0  0  0  0
  4  5  1  0  0  0  0
  4  6  1  0  0  0  0
  4  7  1  0  0  0  0
  7  8  1  0  0  0  0
  7  9  1  0  0  0  0
  7 10  1  0  0  0  0
 10 11  1  0  0  0  0
 10 12  1  0  0  0  0
 10 13  1  0  0  0  0
 13 14  1  0  0  0  0
 13 15  1  0  0  0  0
 13 16  1  0  0  0  0
 16 17  1  0  0  0  0
 16 18  1  0  0  0  0
 16 19  1  0  0  0  0
 19 20  1  0  0  0  0
 19 21  1  0  0  0  0
 19 22  1  0  0  0  0
  1 23  1  0  0  0  0
 23 24  1  0  0  0  0
 23 25  1  0  0  0  0
 23 26  1  0  0  0  0
M  END
> <VConfSearch Rank>
331

> <Conf_Id>
123

> <Delta U+W>
3.101

> <U+W>
24.943

> <U>
74.070

> <W>
-49.127

> <W(PB)>
-51.421

> <W(SA)>
2.295

> <Valence>
4.690

> <Coulomb>
69.115

> <VdW>
0.266

> <VdW6>
-6.809

> <VdW12>
7.075

> <Bond>
0.212

> <Angle>
1.133

> <Pdih>
3.345

> <Idih>
0.000

> <Tether>
0.000

$$$$
VeraChem MOL file


 26 25  0  0  0  0  0  0  0  0999 V2000     
   21.8995   19.7965   25.1103 N   0  3  0  0  0  0  0  0  0  0  0  0
   21.3721   19.7610   25.9964 H   0  0  0  0  0  0  0  0  0  0  0  0
   21.6320   20.6871   24.6649 H   0  0  0  0  0  0  0  0  0  0  0  0
   21.5067   18.6314   24.2224 C   0  0  0  0  0  0  0  0  0  0  0  0
   21.8086   17.7128   24.7319 H   0  0  0  0  0  0  0  0  0  0  0  0
   22.0761   18.7089   23.2928 H   0  0  0  0  0  0  0  0  0  0  0  0
   20.0000   18.5666   23.9033 C   0  0  0  0  0  0  0  0  0  0  0  0
   19.8061   17.6377   23.3555 H   0  0  0  0  0  0  0  0  0  0  0  0
   19.4318   18.4949   24.8402 H   0  0  0  0  0  0  0  0  0  0  0  0
   19.5104   19.7867   23.0819 C   0  0  0  0  0  0  0  0  0  0  0  0
   20.1369   19.9235   22.1896 H   0  0  0  0  0  0  0  0  0  0  0  0
   19.6427   20.6924   23.6887 H   0  0  0  0  0  0  0  0  0  0  0  0
   18.0169   19.6936   22.6729 C   0  0  0  0  0  0  0  0  0  0  0  0
   17.4534   19.1108   23.4146 H   0  0  0  0  0  0  0  0  0  0  0  0
   17.5892   20.7053   22.7057 H   0  0  0  0  0  0  0  0  0  0  0  0
   17.7682   19.1292   21.2505 C   0  0  0  0  0  0  0  0  0  0  0  0
   18.2511   19.7787   20.5070 H   0  0  0  0  0  0  0  0  0  0  0  0
   16.6905   19.1765   21.0404 H   0  0  0  0  0  0  0  0  0  0  0  0
   18.2482   17.6751   21.0488 C   0  0  0  0  0  0  0  0  0  0  0  0
   17.8280   17.0092   21.8135 H   0  0  0  0  0  0  0  0  0  0  0  0
   19.3423   17.6071   21.0876 H   0  0  0  0  0  0  0  0  0  0  0  0
   17.9319   17.2998   20.0670 H   0  0  0  0  0  0  0  0  0  0  0  0
   23.3977   19.7624   25.3777 C   0  0  0  0  0  0  0  0  0  0  0  0
   23.9336   19.8331   24.4286 H   0  0  0  0  0  0  0  0  0  0  0  0
   23.6669   20.6061   26.0171 H   0  0  0  0  0  0  0  0  0  0  0  0
   23.6520   18.8251   25.8773 H   0  0  0  0  0  0  0  0  0  0  0  0
  1  2  1  0  0  0  0
  1  3  1  0  0  0  0
  1  4  1  0  0  0  0
  4  5  1  0  0  0  0
  4  6  1  0  0  0  0
  4  7  1  0  0  0  0
  7  8  1  0  0  0  0
  7  9  1  0  0  0  0
  7 10  1  0  0  0  0
 10 11  1  0  0  0  0
 10 12  1  0  0  0  0
 10 13  1  0  0  0  0
 13 14  1  0  0  0  0
 13 15  1  0  0  0  0
 13 16  1  0  0  0  0
 16 17  1  0  0  0  0
 16 18  1  0  0  0  0
 16 19  1  0  0  0  0
 19 20  1  0  0  0  0
 19 21  1  0  0  0  0
 19 22  1  0  0  0  0
  1 23  1  0  0  0  0
 23 24  1  0  0  0  0
 23 25  1  0  0  0  0
 23 26  1  0  0  0  0
M  END
> <VConfSearch Rank>
332

> <Conf_Id>
111

> <Delta U+W>
3.383

> <U+W>
25.225

> <U>
74.516

> <W>
-49.292

> <W(PB)>
-51.558

> <W(SA)>
2.266

> <Valence>
4.842

> <Coulomb>
69.333

> <VdW>
0.342

> <VdW6>
-7.369

> <VdW12>
7.711

> <Bond>
0.232

> <Angle>
1.153

> <Pdih>
3.457

> <Idih>
0.000

> <Tether>
0.000

$$$$
VeraChem MOL file


 26 25  0  0  0  0  0  0  0  0999 V2000     
   18.5451   19.4716   25.1264 N   0  3  0  0  0  0  0  0  0  0  0  0
   17.7294   20.0707   24.9256 H   0  0  0  0  0  0  0  0  0  0  0  0
   19.3723   20.0565   24.9348 H   0  0  0  0  0  0  0  0  0  0  0  0
   18.5425   18.2630   24.2110 C   0  0  0  0  0  0  0  0  0  0  0  0
   17.6474   17.6781   24.4375 H   0  0  0  0  0  0  0  0  0  0  0  0
   19.4158   17.6538   24.4553 H   0  0  0  0  0  0  0  0  0  0  0  0
   18.5560   18.6172   22.7094 C   0  0  0  0  0  0  0  0  0  0  0  0
   18.5053   17.6867   22.1284 H   0  0  0  0  0  0  0  0  0  0  0  0
   17.6445   19.1790   22.4657 H   0  0  0  0  0  0  0  0  0  0  0  0
   19.7950   19.4326   22.2601 C   0  0  0  0  0  0  0  0  0  0  0  0
   19.8092   20.4045   22.7709 H   0  0  0  0  0  0  0  0  0  0  0  0
   19.6871   19.6522   21.1901 H   0  0  0  0  0  0  0  0  0  0  0  0
   21.1348   18.6921   22.5046 C   0  0  0  0  0  0  0  0  0  0  0  0
   21.2332   18.4509   23.5712 H   0  0  0  0  0  0  0  0  0  0  0  0
   21.1301   17.7322   21.9700 H   0  0  0  0  0  0  0  0  0  0  0  0
   22.3780   19.5120   22.0817 C   0  0  0  0  0  0  0  0  0  0  0  0
   23.2806   18.9681   22.3937 H   0  0  0  0  0  0  0  0  0  0  0  0
   22.3946   20.4687   22.6223 H   0  0  0  0  0  0  0  0  0  0  0  0
   22.4573   19.7728   20.5601 C   0  0  0  0  0  0  0  0  0  0  0  0
   21.6422   20.4223   20.2181 H   0  0  0  0  0  0  0  0  0  0  0  0
   22.4092   18.8329   19.9951 H   0  0  0  0  0  0  0  0  0  0  0  0
   23.4024   20.2693   20.3046 H   0  0  0  0  0  0  0  0  0  0  0  0
   18.5341   19.0212   26.5805 C   0  0  0  0  0  0  0  0  0  0  0  0
   18.5373   19.9009   27.2281 H   0  0  0  0  0  0  0  0  0  0  0  0
   17.6350   18.4297   26.7662 H   0  0  0  0  0  0  0  0  0  0  0  0
   19.4222   18.4161   26.7758 H   0  0  0  0  0  0  0  0  0  0  0  0
  1  2  1  0  0  0  0
  1  3  1  0  0  0  0
  1  4  1  0  0  0  0
  4  5  1  0  0  0  0
  4  6  1  0  0  0  0
  4  7  1  0  0  0  0
  7  8  1  0  0  0  0
  7  9  1  0  0  0  0
  7 10  1  0  0  0  0
 10 11  1  0  0  0  0
 10 12  1  0  0  0  0
 10 13  1  0  0  0  0
 13 14  1  0  0  0  0
 13 15  1  0  0  0  0
 13 16  1  0  0  0  0
 16 17  1  0  0  0  0
 16 18  1  0  0  0  0
 16 19  1  0  0  0  0
 19 20  1  0  0  0  0
 19 21  1  0  0  0  0
 19 22  1  0  0  0  0
  1 23  1  0  0  0  0
 23 24  1  0  0  0  0
 23 25  1  0  0  0  0
 23 26  1  0  0  0  0
M  END
> <VConfSearch Rank>
333

> <Conf_Id>
126

> <Delta U+W>
1.519

> <U+W>
23.361

> <U>
72.579

> <W>
-49.218

> <W(PB)>
-51.496

> <W(SA)>
2.279

> <Valence>
2.678

> <Coulomb>
69.622

> <VdW>
0.279

> <VdW6>
-7.328

> <VdW12>
7.608

> <Bond>
0.212

> <Angle>
0.911

> <Pdih>
1.555

> <Idih>
0.000

> <Tether>
0.000

$$$$
VeraChem MOL file


 26 25  0  0  0  0  0  0  0  0999 V2000     
   18.5987   21.0223   23.3358 N   0  3  0  0  0  0  0  0  0  0  0  0
   18.5977   20.3202   22.5807 H   0  0  0  0  0  0  0  0  0  0  0  0
   18.9806   21.8829   22.9137 H   0  0  0  0  0  0  0  0  0  0  0  0
   19.4895   20.5592   24.4719 C   0  0  0  0  0  0  0  0  0  0  0  0
   19.0523   19.6513   24.8940 H   0  0  0  0  0  0  0  0  0  0  0  0
   19.4721   21.3335   25.2430 H   0  0  0  0  0  0  0  0  0  0  0  0
   20.9490   20.2892   24.0507 C   0  0  0  0  0  0  0  0  0  0  0  0
   21.3944   21.2231   23.6830 H   0  0  0  0  0  0  0  0  0  0  0  0
   21.5254   20.0063   24.9415 H   0  0  0  0  0  0  0  0  0  0  0  0
   21.1053   19.1883   22.9709 C   0  0  0  0  0  0  0  0  0  0  0  0
   22.1720   19.1007   22.7274 H   0  0  0  0  0  0  0  0  0  0  0  0
   20.6055   19.4992   22.0439 H   0  0  0  0  0  0  0  0  0  0  0  0
   20.5617   17.8086   23.4225 C   0  0  0  0  0  0  0  0  0  0  0  0
   21.0826   17.4859   24.3345 H   0  0  0  0  0  0  0  0  0  0  0  0
   19.5006   17.8999   23.6892 H   0  0  0  0  0  0  0  0  0  0  0  0
   20.6910   16.7107   22.3387 C   0  0  0  0  0  0  0  0  0  0  0  0
   20.1614   17.0225   21.4277 H   0  0  0  0  0  0  0  0  0  0  0  0
   20.1816   15.8040   22.6942 H   0  0  0  0  0  0  0  0  0  0  0  0
   22.1548   16.3537   21.9931 C   0  0  0  0  0  0  0  0  0  0  0  0
   22.7155   16.0701   22.8931 H   0  0  0  0  0  0  0  0  0  0  0  0
   22.6736   17.1934   21.5146 H   0  0  0  0  0  0  0  0  0  0  0  0
   22.1889   15.5063   21.2962 H   0  0  0  0  0  0  0  0  0  0  0  0
   17.1849   21.2584   23.8482 C   0  0  0  0  0  0  0  0  0  0  0  0
   16.7920   20.3266   24.2607 H   0  0  0  0  0  0  0  0  0  0  0  0
   17.2081   22.0262   24.6247 H   0  0  0  0  0  0  0  0  0  0  0  0
   16.5545   21.5902   23.0202 H   0  0  0  0  0  0  0  0  0  0  0  0
  1  2  1  0  0  0  0
  1  3  1  0  0  0  0
  1  4  1  0  0  0  0
  4  5  1  0  0  0  0
  4  6  1  0  0  0  0
  4  7  1  0  0  0  0
  7  8  1  0  0  0  0
  7  9  1  0  0  0  0
  7 10  1  0  0  0  0
 10 11  1  0  0  0  0
 10 12  1  0  0  0  0
 10 13  1  0  0  0  0
 13 14  1  0  0  0  0
 13 15  1  0  0  0  0
 13 16  1  0  0  0  0
 16 17  1  0  0  0  0
 16 18  1  0  0  0  0
 16 19  1  0  0  0  0
 19 20  1  0  0  0  0
 19 21  1  0  0  0  0
 19 22  1  0  0  0  0
  1 23  1  0  0  0  0
 23 24  1  0  0  0  0
 23 25  1  0  0  0  0
 23 26  1  0  0  0  0
M  END
> <VConfSearch Rank>
334

> <Conf_Id>
134

> <Delta U+W>
1.464

> <U+W>
23.306

> <U>
72.579

> <W>
-49.273

> <W(PB)>
-51.540

> <W(SA)>
2.267

> <Valence>
2.677

> <Coulomb>
69.622

> <VdW>
0.280

> <VdW6>
-7.328

> <VdW12>
7.608

> <Bond>
0.212

> <Angle>
0.911

> <Pdih>
1.555

> <Idih>
0.000

> <Tether>
0.000

$$$$
VeraChem MOL file


 26 25  0  0  0  0  0  0  0  0999 V2000     
   17.5326   18.5542   24.2556 N   0  3  0  0  0  0  0  0  0  0  0  0
   17.5057   17.8280   23.5230 H   0  0  0  0  0  0  0  0  0  0  0  0
   17.0141   19.3568   23.8659 H   0  0  0  0  0  0  0  0  0  0  0  0
   18.9661   18.9499   24.5477 C   0  0  0  0  0  0  0  0  0  0  0  0
   19.4806   18.0735   24.9497 H   0  0  0  0  0  0  0  0  0  0  0  0
   18.9496   19.7236   25.3195 H   0  0  0  0  0  0  0  0  0  0  0  0
   19.7187   19.4695   23.3094 C   0  0  0  0  0  0  0  0  0  0  0  0
   19.7130   18.6917   22.5353 H   0  0  0  0  0  0  0  0  0  0  0  0
   19.1901   20.3401   22.8993 H   0  0  0  0  0  0  0  0  0  0  0  0
   21.1741   19.8606   23.6581 C   0  0  0  0  0  0  0  0  0  0  0  0
   21.7157   18.9814   24.0318 H   0  0  0  0  0  0  0  0  0  0  0  0
   21.1606   20.5810   24.4878 H   0  0  0  0  0  0  0  0  0  0  0  0
   21.9476   20.4952   22.4732 C   0  0  0  0  0  0  0  0  0  0  0  0
   21.4542   21.4341   22.1863 H   0  0  0  0  0  0  0  0  0  0  0  0
   22.9515   20.7777   22.8190 H   0  0  0  0  0  0  0  0  0  0  0  0
   22.0852   19.5992   21.2156 C   0  0  0  0  0  0  0  0  0  0  0  0
   22.6468   20.1541   20.4511 H   0  0  0  0  0  0  0  0  0  0  0  0
   21.0970   19.4041   20.7779 H   0  0  0  0  0  0  0  0  0  0  0  0
   22.8081   18.2608   21.4898 C   0  0  0  0  0  0  0  0  0  0  0  0
   23.7922   18.4300   21.9456 H   0  0  0  0  0  0  0  0  0  0  0  0
   22.9622   17.7082   20.5539 H   0  0  0  0  0  0  0  0  0  0  0  0
   22.2242   17.6180   22.1601 H   0  0  0  0  0  0  0  0  0  0  0  0
   16.8638   18.0536   25.5284 C   0  0  0  0  0  0  0  0  0  0  0  0
   16.8747   18.8493   26.2766 H   0  0  0  0  0  0  0  0  0  0  0  0
   15.8324   17.7722   25.3042 H   0  0  0  0  0  0  0  0  0  0  0  0
   17.4098   17.1853   25.9034 H   0  0  0  0  0  0  0  0  0  0  0  0
  1  2  1  0  0  0  0
  1  3  1  0  0  0  0
  1  4  1  0  0  0  0
  4  5  1  0  0  0  0
  4  6  1  0  0  0  0
  4  7  1  0  0  0  0
  7  8  1  0  0  0  0
  7  9  1  0  0  0  0
  7 10  1  0  0  0  0
 10 11  1  0  0  0  0
 10 12  1  0  0  0  0
 10 13  1  0  0  0  0
 13 14  1  0  0  0  0
 13 15  1  0  0  0  0
 13 16  1  0  0  0  0
 16 17  1  0  0  0  0
 16 18  1  0  0  0  0
 16 19  1  0  0  0  0
 19 20  1  0  0  0  0
 19 21  1  0  0  0  0
 19 22  1  0  0  0  0
  1 23  1  0  0  0  0
 23 24  1  0  0  0  0
 23 25  1  0  0  0  0
 23 26  1  0  0  0  0
M  END
> <VConfSearch Rank>
335

> <Conf_Id>
30

> <Delta U+W>
0.910

> <U+W>
22.752

> <U>
71.870

> <W>
-49.118

> <W(PB)>
-51.409

> <W(SA)>
2.290

> <Valence>
2.682

> <Coulomb>
68.933

> <VdW>
0.255

> <VdW6>
-6.833

> <VdW12>
7.088

> <Bond>
0.205

> <Angle>
1.003

> <Pdih>
1.473

> <Idih>
0.000

> <Tether>
0.000

$$$$
VeraChem MOL file


 26 25  0  0  0  0  0  0  0  0999 V2000     
   20.9973   20.7336   21.3147 N   0  3  0  0  0  0  0  0  0  0  0  0
   20.2789   20.6222   20.5823 H   0  0  0  0  0  0  0  0  0  0  0  0
   21.6799   19.9781   21.1471 H   0  0  0  0  0  0  0  0  0  0  0  0
   20.3729   20.5797   22.6870 C   0  0  0  0  0  0  0  0  0  0  0  0
   19.6531   21.3912   22.8206 H   0  0  0  0  0  0  0  0  0  0  0  0
   21.1651   20.6961   23.4308 H   0  0  0  0  0  0  0  0  0  0  0  0
   19.6695   19.2251   22.8875 C   0  0  0  0  0  0  0  0  0  0  0  0
   18.8850   19.1050   22.1287 H   0  0  0  0  0  0  0  0  0  0  0  0
   20.3971   18.4183   22.7330 H   0  0  0  0  0  0  0  0  0  0  0  0
   19.0486   19.1167   24.3000 C   0  0  0  0  0  0  0  0  0  0  0  0
   18.3835   19.9760   24.4641 H   0  0  0  0  0  0  0  0  0  0  0  0
   19.8374   19.1975   25.0598 H   0  0  0  0  0  0  0  0  0  0  0  0
   18.2311   17.8175   24.5211 C   0  0  0  0  0  0  0  0  0  0  0  0
   17.7955   17.8429   25.5295 H   0  0  0  0  0  0  0  0  0  0  0  0
   17.3795   17.8087   23.8269 H   0  0  0  0  0  0  0  0  0  0  0  0
   19.0262   16.4974   24.3525 C   0  0  0  0  0  0  0  0  0  0  0  0
   19.3685   16.3897   23.3146 H   0  0  0  0  0  0  0  0  0  0  0  0
   18.3448   15.6540   24.5319 H   0  0  0  0  0  0  0  0  0  0  0  0
   20.2301   16.3770   25.3143 C   0  0  0  0  0  0  0  0  0  0  0  0
   20.9972   17.1300   25.0952 H   0  0  0  0  0  0  0  0  0  0  0  0
   20.7004   15.3897   25.2200 H   0  0  0  0  0  0  0  0  0  0  0  0
   19.9149   16.5003   26.3586 H   0  0  0  0  0  0  0  0  0  0  0  0
   21.6691   22.0950   21.2010 C   0  0  0  0  0  0  0  0  0  0  0  0
   22.1144   22.1930   20.2084 H   0  0  0  0  0  0  0  0  0  0  0  0
   20.9218   22.8778   21.3488 H   0  0  0  0  0  0  0  0  0  0  0  0
   22.4466   22.1767   21.9637 H   0  0  0  0  0  0  0  0  0  0  0  0
  1  2  1  0  0  0  0
  1  3  1  0  0  0  0
  1  4  1  0  0  0  0
  4  5  1  0  0  0  0
  4  6  1  0  0  0  0
  4  7  1  0  0  0  0
  7  8  1  0  0  0  0
  7  9  1  0  0  0  0
  7 10  1  0  0  0  0
 10 11  1  0  0  0  0
 10 12  1  0  0  0  0
 10 13  1  0  0  0  0
 13 14  1  0  0  0  0
 13 15  1  0  0  0  0
 13 16  1  0  0  0  0
 16 17  1  0  0  0  0
 16 18  1  0  0  0  0
 16 19  1  0  0  0  0
 19 20  1  0  0  0  0
 19 21  1  0  0  0  0
 19 22  1  0  0  0  0
  1 23  1  0  0  0  0
 23 24  1  0  0  0  0
 23 25  1  0  0  0  0
 23 26  1  0  0  0  0
M  END
> <VConfSearch Rank>
336

> <Conf_Id>
29

> <Delta U+W>
0.886

> <U+W>
22.729

> <U>
71.870

> <W>
-49.141

> <W(PB)>
-51.404

> <W(SA)>
2.262

> <Valence>
2.682

> <Coulomb>
68.933

> <VdW>
0.255

> <VdW6>
-6.833

> <VdW12>
7.088

> <Bond>
0.205

> <Angle>
1.003

> <Pdih>
1.473

> <Idih>
0.000

> <Tether>
0.000

$$$$
VeraChem MOL file


 26 25  0  0  0  0  0  0  0  0999 V2000     
   19.6450   19.4907   20.7203 N   0  3  0  0  0  0  0  0  0  0  0  0
   18.9609   18.8770   20.2510 H   0  0  0  0  0  0  0  0  0  0  0  0
   20.5579   19.0243   20.6035 H   0  0  0  0  0  0  0  0  0  0  0  0
   19.3077   19.6200   22.1919 C   0  0  0  0  0  0  0  0  0  0  0  0
   18.3317   20.1053   22.2715 H   0  0  0  0  0  0  0  0  0  0  0  0
   20.0555   20.2724   22.6491 H   0  0  0  0  0  0  0  0  0  0  0  0
   19.2763   18.2687   22.9309 C   0  0  0  0  0  0  0  0  0  0  0  0
   18.5479   17.6083   22.4420 H   0  0  0  0  0  0  0  0  0  0  0  0
   20.2515   17.7737   22.8388 H   0  0  0  0  0  0  0  0  0  0  0  0
   18.8955   18.4141   24.4253 C   0  0  0  0  0  0  0  0  0  0  0  0
   18.8724   17.4187   24.8885 H   0  0  0  0  0  0  0  0  0  0  0  0
   17.8674   18.7958   24.4938 H   0  0  0  0  0  0  0  0  0  0  0  0
   19.8255   19.3475   25.2468 C   0  0  0  0  0  0  0  0  0  0  0  0
   19.7179   20.3793   24.8861 H   0  0  0  0  0  0  0  0  0  0  0  0
   19.4760   19.3620   26.2883 H   0  0  0  0  0  0  0  0  0  0  0  0
   21.3272   18.9641   25.2289 C   0  0  0  0  0  0  0  0  0  0  0  0
   21.8830   19.6977   25.8296 H   0  0  0  0  0  0  0  0  0  0  0  0
   21.7282   19.0455   24.2097 H   0  0  0  0  0  0  0  0  0  0  0  0
   21.6058   17.5504   25.7880 C   0  0  0  0  0  0  0  0  0  0  0  0
   22.6860   17.3606   25.8333 H   0  0  0  0  0  0  0  0  0  0  0  0
   21.1599   16.7724   25.1561 H   0  0  0  0  0  0  0  0  0  0  0  0
   21.2031   17.4414   26.8033 H   0  0  0  0  0  0  0  0  0  0  0  0
   19.6615   20.8672   20.0702 C   0  0  0  0  0  0  0  0  0  0  0  0
   19.9052   20.7601   19.0108 H   0  0  0  0  0  0  0  0  0  0  0  0
   18.6765   21.3269   20.1774 H   0  0  0  0  0  0  0  0  0  0  0  0
   20.4148   21.4873   20.5611 H   0  0  0  0  0  0  0  0  0  0  0  0
  1  2  1  0  0  0  0
  1  3  1  0  0  0  0
  1  4  1  0  0  0  0
  4  5  1  0  0  0  0
  4  6  1  0  0  0  0
  4  7  1  0  0  0  0
  7  8  1  0  0  0  0
  7  9  1  0  0  0  0
  7 10  1  0  0  0  0
 10 11  1  0  0  0  0
 10 12  1  0  0  0  0
 10 13  1  0  0  0  0
 13 14  1  0  0  0  0
 13 15  1  0  0  0  0
 13 16  1  0  0  0  0
 16 17  1  0  0  0  0
 16 18  1  0  0  0  0
 16 19  1  0  0  0  0
 19 20  1  0  0  0  0
 19 21  1  0  0  0  0
 19 22  1  0  0  0  0
  1 23  1  0  0  0  0
 23 24  1  0  0  0  0
 23 25  1  0  0  0  0
 23 26  1  0  0  0  0
M  END
> <VConfSearch Rank>
337

> <Conf_Id>
82

> <Delta U+W>
1.026

> <U+W>
22.868

> <U>
72.455

> <W>
-49.586

> <W(PB)>
-51.821

> <W(SA)>
2.234

> <Valence>
2.908

> <Coulomb>
69.435

> <VdW>
0.112

> <VdW6>
-7.765

> <VdW12>
7.877

> <Bond>
0.233

> <Angle>
1.170

> <Pdih>
1.506

> <Idih>
0.000

> <Tether>
0.000

$$$$
VeraChem MOL file


 26 25  0  0  0  0  0  0  0  0999 V2000     
   20.5859   17.8611   21.0222 N   0  3  0  0  0  0  0  0  0  0  0  0
   19.5739   17.6606   21.0088 H   0  0  0  0  0  0  0  0  0  0  0  0
   21.0474   16.9407   21.0907 H   0  0  0  0  0  0  0  0  0  0  0  0
   20.9351   18.7118   22.2266 C   0  0  0  0  0  0  0  0  0  0  0  0
   20.4253   19.6718   22.1156 H   0  0  0  0  0  0  0  0  0  0  0  0
   22.0133   18.8900   22.2108 H   0  0  0  0  0  0  0  0  0  0  0  0
   20.5366   18.0642   23.5663 C   0  0  0  0  0  0  0  0  0  0  0  0
   19.4563   17.8710   23.5772 H   0  0  0  0  0  0  0  0  0  0  0  0
   21.0258   17.0848   23.6519 H   0  0  0  0  0  0  0  0  0  0  0  0
   20.9320   18.9293   24.7888 C   0  0  0  0  0  0  0  0  0  0  0  0
   22.0273   19.0068   24.8292 H   0  0  0  0  0  0  0  0  0  0  0  0
   20.6388   18.4062   25.7088 H   0  0  0  0  0  0  0  0  0  0  0  0
   20.3342   20.3624   24.7935 C   0  0  0  0  0  0  0  0  0  0  0  0
   20.6623   20.8760   25.7077 H   0  0  0  0  0  0  0  0  0  0  0  0
   20.7621   20.9391   23.9624 H   0  0  0  0  0  0  0  0  0  0  0  0
   18.7881   20.4324   24.7086 C   0  0  0  0  0  0  0  0  0  0  0  0
   18.4409   20.0195   23.7519 H   0  0  0  0  0  0  0  0  0  0  0  0
   18.4850   21.4887   24.7074 H   0  0  0  0  0  0  0  0  0  0  0  0
   18.0767   19.7124   25.8766 C   0  0  0  0  0  0  0  0  0  0  0  0
   18.2619   18.6313   25.8559 H   0  0  0  0  0  0  0  0  0  0  0  0
   16.9910   19.8629   25.8172 H   0  0  0  0  0  0  0  0  0  0  0  0
   18.4169   20.1009   26.8453 H   0  0  0  0  0  0  0  0  0  0  0  0
   21.0058   18.5752   19.7449 C   0  0  0  0  0  0  0  0  0  0  0  0
   22.0842   18.7468   19.7673 H   0  0  0  0  0  0  0  0  0  0  0  0
   20.7491   17.9520   18.8853 H   0  0  0  0  0  0  0  0  0  0  0  0
   20.4802   19.5303   19.6780 H   0  0  0  0  0  0  0  0  0  0  0  0
  1  2  1  0  0  0  0
  1  3  1  0  0  0  0
  1  4  1  0  0  0  0
  4  5  1  0  0  0  0
  4  6  1  0  0  0  0
  4  7  1  0  0  0  0
  7  8  1  0  0  0  0
  7  9  1  0  0  0  0
  7 10  1  0  0  0  0
 10 11  1  0  0  0  0
 10 12  1  0  0  0  0
 10 13  1  0  0  0  0
 13 14  1  0  0  0  0
 13 15  1  0  0  0  0
 13 16  1  0  0  0  0
 16 17  1  0  0  0  0
 16 18  1  0  0  0  0
 16 19  1  0  0  0  0
 19 20  1  0  0  0  0
 19 21  1  0  0  0  0
 19 22  1  0  0  0  0
  1 23  1  0  0  0  0
 23 24  1  0  0  0  0
 23 25  1  0  0  0  0
 23 26  1  0  0  0  0
M  END
> <VConfSearch Rank>
338

> <Conf_Id>
71

> <Delta U+W>
1.096

> <U+W>
22.938

> <U>
72.455

> <W>
-49.517

> <W(PB)>
-51.795

> <W(SA)>
2.278

> <Valence>
2.908

> <Coulomb>
69.435

> <VdW>
0.112

> <VdW6>
-7.766

> <VdW12>
7.877

> <Bond>
0.233

> <Angle>
1.170

> <Pdih>
1.506

> <Idih>
0.000

> <Tether>
0.000

$$$$
VeraChem MOL file


 26 25  0  0  0  0  0  0  0  0999 V2000     
   18.2615   20.2289   24.5757 N   0  3  0  0  0  0  0  0  0  0  0  0
   18.3247   20.2755   23.5478 H   0  0  0  0  0  0  0  0  0  0  0  0
   18.0477   21.1928   24.8774 H   0  0  0  0  0  0  0  0  0  0  0  0
   19.5972   19.7959   25.1590 C   0  0  0  0  0  0  0  0  0  0  0  0
   19.4829   19.7408   26.2445 H   0  0  0  0  0  0  0  0  0  0  0  0
   20.3205   20.5848   24.9392 H   0  0  0  0  0  0  0  0  0  0  0  0
   20.1401   18.4498   24.6274 C   0  0  0  0  0  0  0  0  0  0  0  0
   21.1051   18.2463   25.1099 H   0  0  0  0  0  0  0  0  0  0  0  0
   19.4700   17.6388   24.9404 H   0  0  0  0  0  0  0  0  0  0  0  0
   20.3182   18.4001   23.0888 C   0  0  0  0  0  0  0  0  0  0  0  0
   19.3443   18.5235   22.5966 H   0  0  0  0  0  0  0  0  0  0  0  0
   20.6708   17.3960   22.8199 H   0  0  0  0  0  0  0  0  0  0  0  0
   21.3156   19.4598   22.5551 C   0  0  0  0  0  0  0  0  0  0  0  0
   20.9803   20.4630   22.8491 H   0  0  0  0  0  0  0  0  0  0  0  0
   22.2979   19.3129   23.0249 H   0  0  0  0  0  0  0  0  0  0  0  0
   21.4720   19.4379   21.0150 C   0  0  0  0  0  0  0  0  0  0  0  0
   22.1018   20.2866   20.7135 H   0  0  0  0  0  0  0  0  0  0  0  0
   20.4943   19.5975   20.5393 H   0  0  0  0  0  0  0  0  0  0  0  0
   22.1055   18.1344   20.4774 C   0  0  0  0  0  0  0  0  0  0  0  0
   21.4516   17.2692   20.6421 H   0  0  0  0  0  0  0  0  0  0  0  0
   23.0700   17.9346   20.9620 H   0  0  0  0  0  0  0  0  0  0  0  0
   22.2831   18.2112   19.3969 H   0  0  0  0  0  0  0  0  0  0  0  0
   17.1413   19.2893   25.0066 C   0  0  0  0  0  0  0  0  0  0  0  0
   16.1954   19.6482   24.5948 H   0  0  0  0  0  0  0  0  0  0  0  0
   17.3481   18.2852   24.6310 H   0  0  0  0  0  0  0  0  0  0  0  0
   17.0863   19.2734   26.0973 H   0  0  0  0  0  0  0  0  0  0  0  0
  1  2  1  0  0  0  0
  1  3  1  0  0  0  0
  1  4  1  0  0  0  0
  4  5  1  0  0  0  0
  4  6  1  0  0  0  0
  4  7  1  0  0  0  0
  7  8  1  0  0  0  0
  7  9  1  0  0  0  0
  7 10  1  0  0  0  0
 10 11  1  0  0  0  0
 10 12  1  0  0  0  0
 10 13  1  0  0  0  0
 13 14  1  0  0  0  0
 13 15  1  0  0  0  0
 13 16  1  0  0  0  0
 16 17  1  0  0  0  0
 16 18  1  0  0  0  0
 16 19  1  0  0  0  0
 19 20  1  0  0  0  0
 19 21  1  0  0  0  0
 19 22  1  0  0  0  0
  1 23  1  0  0  0  0
 23 24  1  0  0  0  0
 23 25  1  0  0  0  0
 23 26  1  0  0  0  0
M  END
> <VConfSearch Rank>
339

> <Conf_Id>
84

> <Delta U+W>
1.456

> <U+W>
23.298

> <U>
73.042

> <W>
-49.744

> <W(PB)>
-51.966

> <W(SA)>
2.222

> <Valence>
2.938

> <Coulomb>
69.625

> <VdW>
0.478

> <VdW6>
-8.182

> <VdW12>
8.660

> <Bond>
0.253

> <Angle>
1.038

> <Pdih>
1.647

> <Idih>
0.000

> <Tether>
0.000

$$$$
VeraChem MOL file


 26 25  0  0  0  0  0  0  0  0999 V2000     
   21.0015   21.2534   23.3744 N   0  3  0  0  0  0  0  0  0  0  0  0
   20.1380   21.0475   22.8498 H   0  0  0  0  0  0  0  0  0  0  0  0
   21.6772   21.5943   22.6731 H   0  0  0  0  0  0  0  0  0  0  0  0
   21.5229   19.9897   24.0298 C   0  0  0  0  0  0  0  0  0  0  0  0
   20.7846   19.6629   24.7659 H   0  0  0  0  0  0  0  0  0  0  0  0
   22.4417   20.2478   24.5626 H   0  0  0  0  0  0  0  0  0  0  0  0
   21.8112   18.8448   23.0367 C   0  0  0  0  0  0  0  0  0  0  0  0
   22.5921   19.1659   22.3346 H   0  0  0  0  0  0  0  0  0  0  0  0
   22.2305   17.9953   23.5921 H   0  0  0  0  0  0  0  0  0  0  0  0
   20.5690   18.3711   22.2407 C   0  0  0  0  0  0  0  0  0  0  0  0
   20.8782   17.5681   21.5572 H   0  0  0  0  0  0  0  0  0  0  0  0
   20.1992   19.1860   21.6042 H   0  0  0  0  0  0  0  0  0  0  0  0
   19.4252   17.8537   23.1462 C   0  0  0  0  0  0  0  0  0  0  0  0
   19.8059   17.0550   23.7978 H   0  0  0  0  0  0  0  0  0  0  0  0
   19.0718   18.6591   23.8038 H   0  0  0  0  0  0  0  0  0  0  0  0
   18.2354   17.3184   22.3187 C   0  0  0  0  0  0  0  0  0  0  0  0
   18.5750   16.5039   21.6635 H   0  0  0  0  0  0  0  0  0  0  0  0
   17.8515   18.1127   21.6632 H   0  0  0  0  0  0  0  0  0  0  0  0
   17.0944   16.8053   23.2230 C   0  0  0  0  0  0  0  0  0  0  0  0
   17.4393   15.9861   23.8673 H   0  0  0  0  0  0  0  0  0  0  0  0
   16.2595   16.4288   22.6178 H   0  0  0  0  0  0  0  0  0  0  0  0
   16.7091   17.6071   23.8663 H   0  0  0  0  0  0  0  0  0  0  0  0
   20.7436   22.3178   24.4316 C   0  0  0  0  0  0  0  0  0  0  0  0
   21.6776   22.5402   24.9523 H   0  0  0  0  0  0  0  0  0  0  0  0
   20.3678   23.2213   23.9462 H   0  0  0  0  0  0  0  0  0  0  0  0
   20.0029   21.9457   25.1427 H   0  0  0  0  0  0  0  0  0  0  0  0
  1  2  1  0  0  0  0
  1  3  1  0  0  0  0
  1  4  1  0  0  0  0
  4  5  1  0  0  0  0
  4  6  1  0  0  0  0
  4  7  1  0  0  0  0
  7  8  1  0  0  0  0
  7  9  1  0  0  0  0
  7 10  1  0  0  0  0
 10 11  1  0  0  0  0
 10 12  1  0  0  0  0
 10 13  1  0  0  0  0
 13 14  1  0  0  0  0
 13 15  1  0  0  0  0
 13 16  1  0  0  0  0
 16 17  1  0  0  0  0
 16 18  1  0  0  0  0
 16 19  1  0  0  0  0
 19 20  1  0  0  0  0
 19 21  1  0  0  0  0
 19 22  1  0  0  0  0
  1 23  1  0  0  0  0
 23 24  1  0  0  0  0
 23 25  1  0  0  0  0
 23 26  1  0  0  0  0
M  END
> <VConfSearch Rank>
340

> <Conf_Id>
73

> <Delta U+W>
0.884

> <U+W>
22.726

> <U>
71.905

> <W>
-49.179

> <W(PB)>
-51.494

> <W(SA)>
2.315

> <Valence>
2.125

> <Coulomb>
69.686

> <VdW>
0.093

> <VdW6>
-6.766

> <VdW12>
6.859

> <Bond>
0.169

> <Angle>
0.621

> <Pdih>
1.336

> <Idih>
0.000

> <Tether>
0.000

$$$$
VeraChem MOL file


 26 25  0  0  0  0  0  0  0  0999 V2000     
   22.5028   16.9731   23.3898 N   0  3  0  0  0  0  0  0  0  0  0  0
   23.0909   17.5297   24.0295 H   0  0  0  0  0  0  0  0  0  0  0  0
   22.8570   17.1787   22.4426 H   0  0  0  0  0  0  0  0  0  0  0  0
   21.0529   17.3976   23.5095 C   0  0  0  0  0  0  0  0  0  0  0  0
   20.7201   17.1713   24.5256 H   0  0  0  0  0  0  0  0  0  0  0  0
   20.4677   16.7923   22.8126 H   0  0  0  0  0  0  0  0  0  0  0  0
   20.8295   18.8915   23.2119 C   0  0  0  0  0  0  0  0  0  0  0  0
   21.4320   19.4956   23.9034 H   0  0  0  0  0  0  0  0  0  0  0  0
   21.1804   19.1178   22.1961 H   0  0  0  0  0  0  0  0  0  0  0  0
   19.3398   19.2779   23.3459 C   0  0  0  0  0  0  0  0  0  0  0  0
   18.9911   19.0449   24.3618 H   0  0  0  0  0  0  0  0  0  0  0  0
   18.7397   18.6674   22.6566 H   0  0  0  0  0  0  0  0  0  0  0  0
   19.1032   20.7763   23.0491 C   0  0  0  0  0  0  0  0  0  0  0  0
   19.7030   21.3868   23.7383 H   0  0  0  0  0  0  0  0  0  0  0  0
   19.4517   21.0093   22.0333 H   0  0  0  0  0  0  0  0  0  0  0  0
   17.6132   21.1624   23.1832 C   0  0  0  0  0  0  0  0  0  0  0  0
   17.2603   20.9334   24.1986 H   0  0  0  0  0  0  0  0  0  0  0  0
   17.0090   20.5560   22.4938 H   0  0  0  0  0  0  0  0  0  0  0  0
   17.3808   22.6592   22.8861 C   0  0  0  0  0  0  0  0  0  0  0  0
   16.3177   22.9139   22.9864 H   0  0  0  0  0  0  0  0  0  0  0  0
   17.6925   22.9122   21.8643 H   0  0  0  0  0  0  0  0  0  0  0  0
   17.9458   23.2925   23.5825 H   0  0  0  0  0  0  0  0  0  0  0  0
   22.6352   15.4881   23.6987 C   0  0  0  0  0  0  0  0  0  0  0  0
   22.0313   14.9184   22.9890 H   0  0  0  0  0  0  0  0  0  0  0  0
   23.6837   15.1956   23.6089 H   0  0  0  0  0  0  0  0  0  0  0  0
   22.2857   15.3005   24.7164 H   0  0  0  0  0  0  0  0  0  0  0  0
  1  2  1  0  0  0  0
  1  3  1  0  0  0  0
  1  4  1  0  0  0  0
  4  5  1  0  0  0  0
  4  6  1  0  0  0  0
  4  7  1  0  0  0  0
  7  8  1  0  0  0  0
  7  9  1  0  0  0  0
  7 10  1  0  0  0  0
 10 11  1  0  0  0  0
 10 12  1  0  0  0  0
 10 13  1  0  0  0  0
 13 14  1  0  0  0  0
 13 15  1  0  0  0  0
 13 16  1  0  0  0  0
 16 17  1  0  0  0  0
 16 18  1  0  0  0  0
 16 19  1  0  0  0  0
 19 20  1  0  0  0  0
 19 21  1  0  0  0  0
 19 22  1  0  0  0  0
  1 23  1  0  0  0  0
 23 24  1  0  0  0  0
 23 25  1  0  0  0  0
 23 26  1  0  0  0  0
M  END
> <VConfSearch Rank>
341

> <Conf_Id>
11

> <Delta U+W>
0.000

> <U+W>
21.842

> <U>
70.357

> <W>
-48.515

> <W(PB)>
-50.856

> <W(SA)>
2.341

> <Valence>
1.714

> <Coulomb>
68.480

> <VdW>
0.163

> <VdW6>
-5.268

> <VdW12>
5.431

> <Bond>
0.126

> <Angle>
0.350

> <Pdih>
1.238

> <Idih>
0.000

> <Tether>
0.000

$$$$
VeraChem MOL file


 26 25  0  0  0  0  0  0  0  0999 V2000     
   18.4609   21.3385   21.3089 N   0  3  0  0  0  0  0  0  0  0  0  0
   18.6159   22.3073   20.9874 H   0  0  0  0  0  0  0  0  0  0  0  0
   17.6141   21.3854   21.8964 H   0  0  0  0  0  0  0  0  0  0  0  0
   19.6503   20.8814   22.1369 C   0  0  0  0  0  0  0  0  0  0  0  0
   19.8543   21.6646   22.8716 H   0  0  0  0  0  0  0  0  0  0  0  0
   20.5145   20.8068   21.4722 H   0  0  0  0  0  0  0  0  0  0  0  0
   19.4399   19.5442   22.8760 C   0  0  0  0  0  0  0  0  0  0  0  0
   18.5413   19.6123   23.5032 H   0  0  0  0  0  0  0  0  0  0  0  0
   19.2648   18.7413   22.1482 H   0  0  0  0  0  0  0  0  0  0  0  0
   20.6605   19.1870   23.7530 C   0  0  0  0  0  0  0  0  0  0  0  0
   20.8369   19.9917   24.4803 H   0  0  0  0  0  0  0  0  0  0  0  0
   21.5586   19.1261   23.1226 H   0  0  0  0  0  0  0  0  0  0  0  0
   20.4620   17.8487   24.5007 C   0  0  0  0  0  0  0  0  0  0  0  0
   19.5638   17.9094   25.1309 H   0  0  0  0  0  0  0  0  0  0  0  0
   20.2858   17.0439   23.7736 H   0  0  0  0  0  0  0  0  0  0  0  0
   21.6829   17.4918   25.3778 C   0  0  0  0  0  0  0  0  0  0  0  0
   21.8618   18.2929   26.1087 H   0  0  0  0  0  0  0  0  0  0  0  0
   22.5838   17.4275   24.7515 H   0  0  0  0  0  0  0  0  0  0  0  0
   21.4812   16.1549   26.1228 C   0  0  0  0  0  0  0  0  0  0  0  0
   22.3579   15.9188   26.7397 H   0  0  0  0  0  0  0  0  0  0  0  0
   21.3338   15.3275   25.4165 H   0  0  0  0  0  0  0  0  0  0  0  0
   20.6062   16.1996   26.7844 H   0  0  0  0  0  0  0  0  0  0  0  0
   18.2388   20.4246   20.1090 C   0  0  0  0  0  0  0  0  0  0  0  0
   18.0113   19.4159   20.4595 H   0  0  0  0  0  0  0  0  0  0  0  0
   17.4016   20.8057   19.5199 H   0  0  0  0  0  0  0  0  0  0  0  0
   19.1434   20.4095   19.4971 H   0  0  0  0  0  0  0  0  0  0  0  0
  1  2  1  0  0  0  0
  1  3  1  0  0  0  0
  1  4  1  0  0  0  0
  4  5  1  0  0  0  0
  4  6  1  0  0  0  0
  4  7  1  0  0  0  0
  7  8  1  0  0  0  0
  7  9  1  0  0  0  0
  7 10  1  0  0  0  0
 10 11  1  0  0  0  0
 10 12  1  0  0  0  0
 10 13  1  0  0  0  0
 13 14  1  0  0  0  0
 13 15  1  0  0  0  0
 13 16  1  0  0  0  0
 16 17  1  0  0  0  0
 16 18  1  0  0  0  0
 16 19  1  0  0  0  0
 19 20  1  0  0  0  0
 19 21  1  0  0  0  0
 19 22  1  0  0  0  0
  1 23  1  0  0  0  0
 23 24  1  0  0  0  0
 23 25  1  0  0  0  0
 23 26  1  0  0  0  0
M  END
> <VConfSearch Rank>
342

> <Conf_Id>
102

> <Delta U+W>
0.121

> <U+W>
21.963

> <U>
70.745

> <W>
-48.782

> <W(PB)>
-51.111

> <W(SA)>
2.329

> <Valence>
1.993

> <Coulomb>
68.323

> <VdW>
0.429

> <VdW6>
-5.973

> <VdW12>
6.402

> <Bond>
0.161

> <Angle>
0.472

> <Pdih>
1.360

> <Idih>
0.000

> <Tether>
0.000

$$$$
VeraChem MOL file


 26 25  0  0  0  0  0  0  0  0999 V2000     
   18.6336   19.0221   20.2233 N   0  3  0  0  0  0  0  0  0  0  0  0
   19.4596   18.6346   19.7416 H   0  0  0  0  0  0  0  0  0  0  0  0
   18.2274   19.6959   19.5547 H   0  0  0  0  0  0  0  0  0  0  0  0
   19.0567   19.7524   21.4870 C   0  0  0  0  0  0  0  0  0  0  0  0
   18.1536   20.1122   21.9863 H   0  0  0  0  0  0  0  0  0  0  0  0
   19.6428   20.6219   21.1784 H   0  0  0  0  0  0  0  0  0  0  0  0
   19.8951   18.9052   22.4657 C   0  0  0  0  0  0  0  0  0  0  0  0
   19.3073   18.0440   22.8088 H   0  0  0  0  0  0  0  0  0  0  0  0
   20.7743   18.5072   21.9419 H   0  0  0  0  0  0  0  0  0  0  0  0
   20.3491   19.7375   23.6854 C   0  0  0  0  0  0  0  0  0  0  0  0
   19.4667   20.1393   24.2029 H   0  0  0  0  0  0  0  0  0  0  0  0
   20.9360   20.6008   23.3417 H   0  0  0  0  0  0  0  0  0  0  0  0
   21.1918   18.9002   24.6743 C   0  0  0  0  0  0  0  0  0  0  0  0
   20.6049   18.0372   25.0183 H   0  0  0  0  0  0  0  0  0  0  0  0
   22.0739   18.4981   24.1568 H   0  0  0  0  0  0  0  0  0  0  0  0
   21.6457   19.7330   25.8939 C   0  0  0  0  0  0  0  0  0  0  0  0
   20.7666   20.1356   26.4164 H   0  0  0  0  0  0  0  0  0  0  0  0
   22.2356   20.5963   25.5552 H   0  0  0  0  0  0  0  0  0  0  0  0
   22.4867   18.8935   26.8792 C   0  0  0  0  0  0  0  0  0  0  0  0
   21.9113   18.0407   27.2626 H   0  0  0  0  0  0  0  0  0  0  0  0
   22.7995   19.5017   27.7379 H   0  0  0  0  0  0  0  0  0  0  0  0
   23.3917   18.5049   26.3944 H   0  0  0  0  0  0  0  0  0  0  0  0
   17.6210   17.9249   20.5316 C   0  0  0  0  0  0  0  0  0  0  0  0
   16.7516   18.3669   21.0232 H   0  0  0  0  0  0  0  0  0  0  0  0
   17.3140   17.4495   19.5973 H   0  0  0  0  0  0  0  0  0  0  0  0
   18.0803   17.1824   21.1872 H   0  0  0  0  0  0  0  0  0  0  0  0
  1  2  1  0  0  0  0
  1  3  1  0  0  0  0
  1  4  1  0  0  0  0
  4  5  1  0  0  0  0
  4  6  1  0  0  0  0
  4  7  1  0  0  0  0
  7  8  1  0  0  0  0
  7  9  1  0  0  0  0
  7 10  1  0  0  0  0
 10 11  1  0  0  0  0
 10 12  1  0  0  0  0
 10 13  1  0  0  0  0
 13 14  1  0  0  0  0
 13 15  1  0  0  0  0
 13 16  1  0  0  0  0
 16 17  1  0  0  0  0
 16 18  1  0  0  0  0
 16 19  1  0  0  0  0
 19 20  1  0  0  0  0
 19 21  1  0  0  0  0
 19 22  1  0  0  0  0
  1 23  1  0  0  0  0
 23 24  1  0  0  0  0
 23 25  1  0  0  0  0
 23 26  1  0  0  0  0
M  END
> <VConfSearch Rank>
343

> <Conf_Id>
37

> <Delta U+W>
0.125

> <U+W>
21.967

> <U>
70.745

> <W>
-48.778

> <W(PB)>
-51.115

> <W(SA)>
2.337

> <Valence>
1.993

> <Coulomb>
68.323

> <VdW>
0.429

> <VdW6>
-5.973

> <VdW12>
6.403

> <Bond>
0.161

> <Angle>
0.472

> <Pdih>
1.360

> <Idih>
0.000

> <Tether>
0.000

$$$$
VeraChem MOL file


 26 25  0  0  0  0  0  0  0  0999 V2000     
   17.2952   19.5310   22.0442 N   0  3  0  0  0  0  0  0  0  0  0  0
   16.9623   20.4906   22.2263 H   0  0  0  0  0  0  0  0  0  0  0  0
   16.7677   18.9293   22.6958 H   0  0  0  0  0  0  0  0  0  0  0  0
   18.7808   19.4305   22.3259 C   0  0  0  0  0  0  0  0  0  0  0  0
   19.3003   20.0881   21.6245 H   0  0  0  0  0  0  0  0  0  0  0  0
   19.0879   18.4013   22.1259 H   0  0  0  0  0  0  0  0  0  0  0  0
   19.1537   19.8158   23.7706 C   0  0  0  0  0  0  0  0  0  0  0  0
   18.7972   20.8347   23.9722 H   0  0  0  0  0  0  0  0  0  0  0  0
   18.6323   19.1550   24.4759 H   0  0  0  0  0  0  0  0  0  0  0  0
   20.6774   19.7574   24.0327 C   0  0  0  0  0  0  0  0  0  0  0  0
   20.8677   20.1509   25.0397 H   0  0  0  0  0  0  0  0  0  0  0  0
   21.1954   20.4280   23.3332 H   0  0  0  0  0  0  0  0  0  0  0  0
   21.2606   18.3260   23.9149 C   0  0  0  0  0  0  0  0  0  0  0  0
   20.7564   17.6604   24.6290 H   0  0  0  0  0  0  0  0  0  0  0  0
   21.0487   17.9238   22.9155 H   0  0  0  0  0  0  0  0  0  0  0  0
   22.7906   18.2633   24.1435 C   0  0  0  0  0  0  0  0  0  0  0  0
   23.3013   18.9187   23.4241 H   0  0  0  0  0  0  0  0  0  0  0  0
   23.1369   17.2428   23.9279 H   0  0  0  0  0  0  0  0  0  0  0  0
   23.2157   18.6380   25.5817 C   0  0  0  0  0  0  0  0  0  0  0  0
   23.0052   19.6912   25.8042 H   0  0  0  0  0  0  0  0  0  0  0  0
   24.2941   18.4830   25.7158 H   0  0  0  0  0  0  0  0  0  0  0  0
   22.6937   18.0183   26.3223 H   0  0  0  0  0  0  0  0  0  0  0  0
   17.0133   19.1326   20.6021 C   0  0  0  0  0  0  0  0  0  0  0  0
   17.3432   18.1036   20.4427 H   0  0  0  0  0  0  0  0  0  0  0  0
   15.9403   19.2095   20.4125 H   0  0  0  0  0  0  0  0  0  0  0  0
   17.5553   19.8032   19.9317 H   0  0  0  0  0  0  0  0  0  0  0  0
  1  2  1  0  0  0  0
  1  3  1  0  0  0  0
  1  4  1  0  0  0  0
  4  5  1  0  0  0  0
  4  6  1  0  0  0  0
  4  7  1  0  0  0  0
  7  8  1  0  0  0  0
  7  9  1  0  0  0  0
  7 10  1  0  0  0  0
 10 11  1  0  0  0  0
 10 12  1  0  0  0  0
 10 13  1  0  0  0  0
 13 14  1  0  0  0  0
 13 15  1  0  0  0  0
 13 16  1  0  0  0  0
 16 17  1  0  0  0  0
 16 18  1  0  0  0  0
 16 19  1  0  0  0  0
 19 20  1  0  0  0  0
 19 21  1  0  0  0  0
 19 22  1  0  0  0  0
  1 23  1  0  0  0  0
 23 24  1  0  0  0  0
 23 25  1  0  0  0  0
 23 26  1  0  0  0  0
M  END
> <VConfSearch Rank>
344

> <Conf_Id>
137

> <Delta U+W>
1.038

> <U+W>
22.880

> <U>
71.810

> <W>
-48.930

> <W(PB)>
-51.257

> <W(SA)>
2.327

> <Valence>
2.568

> <Coulomb>
68.877

> <VdW>
0.364

> <VdW6>
-6.470

> <VdW12>
6.834

> <Bond>
0.191

> <Angle>
0.752

> <Pdih>
1.626

> <Idih>
0.000

> <Tether>
0.000

$$$$
VeraChem MOL file


 26 25  0  0  0  0  0  0  0  0999 V2000     
   20.0625   21.5744   24.8877 N   0  3  0  0  0  0  0  0  0  0  0  0
   19.5783   21.0395   25.6255 H   0  0  0  0  0  0  0  0  0  0  0  0
   19.3138   22.0270   24.3405 H   0  0  0  0  0  0  0  0  0  0  0  0
   20.8640   20.6397   24.0042 C   0  0  0  0  0  0  0  0  0  0  0  0
   21.6380   20.1764   24.6212 H   0  0  0  0  0  0  0  0  0  0  0  0
   21.3524   21.2427   23.2345 H   0  0  0  0  0  0  0  0  0  0  0  0
   20.0079   19.5461   23.3398 C   0  0  0  0  0  0  0  0  0  0  0  0
   19.5084   18.9600   24.1213 H   0  0  0  0  0  0  0  0  0  0  0  0
   19.2219   20.0162   22.7340 H   0  0  0  0  0  0  0  0  0  0  0  0
   20.8697   18.6211   22.4481 C   0  0  0  0  0  0  0  0  0  0  0  0
   21.6255   18.1127   23.0629 H   0  0  0  0  0  0  0  0  0  0  0  0
   21.4239   19.2372   21.7263 H   0  0  0  0  0  0  0  0  0  0  0  0
   20.0450   17.5699   21.6648 C   0  0  0  0  0  0  0  0  0  0  0  0
   19.3009   18.0788   21.0365 H   0  0  0  0  0  0  0  0  0  0  0  0
   20.7190   17.0417   20.9763 H   0  0  0  0  0  0  0  0  0  0  0  0
   19.3404   16.5331   22.5719 C   0  0  0  0  0  0  0  0  0  0  0  0
   18.6027   17.0307   23.2154 H   0  0  0  0  0  0  0  0  0  0  0  0
   20.0766   16.0606   23.2371 H   0  0  0  0  0  0  0  0  0  0  0  0
   18.6268   15.4435   21.7432 C   0  0  0  0  0  0  0  0  0  0  0  0
   17.8626   15.8826   21.0887 H   0  0  0  0  0  0  0  0  0  0  0  0
   18.1303   14.7188   22.4015 H   0  0  0  0  0  0  0  0  0  0  0  0
   19.3399   14.8939   21.1152 H   0  0  0  0  0  0  0  0  0  0  0  0
   20.9814   22.6209   25.5027 C   0  0  0  0  0  0  0  0  0  0  0  0
   21.4564   23.1955   24.7045 H   0  0  0  0  0  0  0  0  0  0  0  0
   20.3919   23.2874   26.1363 H   0  0  0  0  0  0  0  0  0  0  0  0
   21.7445   22.1206   26.1031 H   0  0  0  0  0  0  0  0  0  0  0  0
  1  2  1  0  0  0  0
  1  3  1  0  0  0  0
  1  4  1  0  0  0  0
  4  5  1  0  0  0  0
  4  6  1  0  0  0  0
  4  7  1  0  0  0  0
  7  8  1  0  0  0  0
  7  9  1  0  0  0  0
  7 10  1  0  0  0  0
 10 11  1  0  0  0  0
 10 12  1  0  0  0  0
 10 13  1  0  0  0  0
 13 14  1  0  0  0  0
 13 15  1  0  0  0  0
 13 16  1  0  0  0  0
 16 17  1  0  0  0  0
 16 18  1  0  0  0  0
 16 19  1  0  0  0  0
 19 20  1  0  0  0  0
 19 21  1  0  0  0  0
 19 22  1  0  0  0  0
  1 23  1  0  0  0  0
 23 24  1  0  0  0  0
 23 25  1  0  0  0  0
 23 26  1  0  0  0  0
M  END
> <VConfSearch Rank>
345

> <Conf_Id>
35

> <Delta U+W>
0.670

> <U+W>
22.512

> <U>
71.348

> <W>
-48.837

> <W(PB)>
-51.150

> <W(SA)>
2.313

> <Valence>
2.262

> <Coulomb>
68.807

> <VdW>
0.280

> <VdW6>
-5.915

> <VdW12>
6.195

> <Bond>
0.164

> <Angle>
0.622

> <Pdih>
1.475

> <Idih>
0.000

> <Tether>
0.000

$$$$
VeraChem MOL file


 26 25  0  0  0  0  0  0  0  0999 V2000     
   19.9585   18.0186   20.5072 N   0  3  0  0  0  0  0  0  0  0  0  0
   20.9667   17.8026   20.4646 H   0  0  0  0  0  0  0  0  0  0  0  0
   19.8747   19.0000   20.1995 H   0  0  0  0  0  0  0  0  0  0  0  0
   19.4515   17.8705   21.9277 C   0  0  0  0  0  0  0  0  0  0  0  0
   19.5650   16.8225   22.2164 H   0  0  0  0  0  0  0  0  0  0  0  0
   18.3863   18.1151   21.9308 H   0  0  0  0  0  0  0  0  0  0  0  0
   20.1919   18.7685   22.9354 C   0  0  0  0  0  0  0  0  0  0  0  0
   21.2637   18.5305   22.9170 H   0  0  0  0  0  0  0  0  0  0  0  0
   20.0867   19.8156   22.6247 H   0  0  0  0  0  0  0  0  0  0  0  0
   19.6408   18.5794   24.3685 C   0  0  0  0  0  0  0  0  0  0  0  0
   19.6799   17.5121   24.6275 H   0  0  0  0  0  0  0  0  0  0  0  0
   18.5799   18.8645   24.3983 H   0  0  0  0  0  0  0  0  0  0  0  0
   20.4223   19.3742   25.4438 C   0  0  0  0  0  0  0  0  0  0  0  0
   20.0391   19.0897   26.4336 H   0  0  0  0  0  0  0  0  0  0  0  0
   21.4798   19.0764   25.4263 H   0  0  0  0  0  0  0  0  0  0  0  0
   20.3099   20.9092   25.2841 C   0  0  0  0  0  0  0  0  0  0  0  0
   19.2513   21.2024   25.2495 H   0  0  0  0  0  0  0  0  0  0  0  0
   20.7595   21.2260   24.3338 H   0  0  0  0  0  0  0  0  0  0  0  0
   21.0091   21.6546   26.4411 C   0  0  0  0  0  0  0  0  0  0  0  0
   20.5589   21.3950   27.4081 H   0  0  0  0  0  0  0  0  0  0  0  0
   20.9225   22.7411   26.3107 H   0  0  0  0  0  0  0  0  0  0  0  0
   22.0773   21.4046   26.4832 H   0  0  0  0  0  0  0  0  0  0  0  0
   19.1760   17.0995   19.5794 C   0  0  0  0  0  0  0  0  0  0  0  0
   18.1180   17.3684   19.6161 H   0  0  0  0  0  0  0  0  0  0  0  0
   19.5510   17.2159   18.5600 H   0  0  0  0  0  0  0  0  0  0  0  0
   19.3066   16.0651   19.9046 H   0  0  0  0  0  0  0  0  0  0  0  0
  1  2  1  0  0  0  0
  1  3  1  0  0  0  0
  1  4  1  0  0  0  0
  4  5  1  0  0  0  0
  4  6  1  0  0  0  0
  4  7  1  0  0  0  0
  7  8  1  0  0  0  0
  7  9  1  0  0  0  0
  7 10  1  0  0  0  0
 10 11  1  0  0  0  0
 10 12  1  0  0  0  0
 10 13  1  0  0  0  0
 13 14  1  0  0  0  0
 13 15  1  0  0  0  0
 13 16  1  0  0  0  0
 16 17  1  0  0  0  0
 16 18  1  0  0  0  0
 16 19  1  0  0  0  0
 19 20  1  0  0  0  0
 19 21  1  0  0  0  0
 19 22  1  0  0  0  0
  1 23  1  0  0  0  0
 23 24  1  0  0  0  0
 23 25  1  0  0  0  0
 23 26  1  0  0  0  0
M  END
> <VConfSearch Rank>
346

> <Conf_Id>
36

> <Delta U+W>
0.662

> <U+W>
22.504

> <U>
71.348

> <W>
-48.844

> <W(PB)>
-51.157

> <W(SA)>
2.313

> <Valence>
2.262

> <Coulomb>
68.807

> <VdW>
0.280

> <VdW6>
-5.916

> <VdW12>
6.195

> <Bond>
0.164

> <Angle>
0.622

> <Pdih>
1.475

> <Idih>
0.000

> <Tether>
0.000

$$$$
VeraChem MOL file


 26 25  0  0  0  0  0  0  0  0999 V2000     
   17.6347   19.3122   24.9676 N   0  3  0  0  0  0  0  0  0  0  0  0
   18.0775   19.0838   25.8712 H   0  0  0  0  0  0  0  0  0  0  0  0
   16.9136   18.5880   24.8246 H   0  0  0  0  0  0  0  0  0  0  0  0
   18.6604   19.2560   23.8535 C   0  0  0  0  0  0  0  0  0  0  0  0
   19.4042   20.0325   24.0468 H   0  0  0  0  0  0  0  0  0  0  0  0
   18.1506   19.4923   22.9161 H   0  0  0  0  0  0  0  0  0  0  0  0
   19.3554   17.8859   23.7343 C   0  0  0  0  0  0  0  0  0  0  0  0
   19.8662   17.6477   24.6768 H   0  0  0  0  0  0  0  0  0  0  0  0
   18.5938   17.1091   23.5843 H   0  0  0  0  0  0  0  0  0  0  0  0
   20.3674   17.8289   22.5657 C   0  0  0  0  0  0  0  0  0  0  0  0
   19.8481   18.0406   21.6206 H   0  0  0  0  0  0  0  0  0  0  0  0
   20.7539   16.8034   22.4843 H   0  0  0  0  0  0  0  0  0  0  0  0
   21.5539   18.8075   22.7402 C   0  0  0  0  0  0  0  0  0  0  0  0
   21.1861   19.8418   22.7735 H   0  0  0  0  0  0  0  0  0  0  0  0
   22.0504   18.6151   23.7015 H   0  0  0  0  0  0  0  0  0  0  0  0
   22.5823   18.6730   21.5950 C   0  0  0  0  0  0  0  0  0  0  0  0
   22.0908   18.8637   20.6306 H   0  0  0  0  0  0  0  0  0  0  0  0
   22.9641   17.6430   21.5575 H   0  0  0  0  0  0  0  0  0  0  0  0
   23.7642   19.6505   21.7693 C   0  0  0  0  0  0  0  0  0  0  0  0
   23.4178   20.6922   21.7752 H   0  0  0  0  0  0  0  0  0  0  0  0
   24.4834   19.5397   20.9473 H   0  0  0  0  0  0  0  0  0  0  0  0
   24.2971   19.4621   22.7104 H   0  0  0  0  0  0  0  0  0  0  0  0
   17.0001   20.6951   25.0181 C   0  0  0  0  0  0  0  0  0  0  0  0
   16.5101   20.9005   24.0638 H   0  0  0  0  0  0  0  0  0  0  0  0
   16.2635   20.7219   25.8242 H   0  0  0  0  0  0  0  0  0  0  0  0
   17.7769   21.4402   25.2034 H   0  0  0  0  0  0  0  0  0  0  0  0
  1  2  1  0  0  0  0
  1  3  1  0  0  0  0
  1  4  1  0  0  0  0
  4  5  1  0  0  0  0
  4  6  1  0  0  0  0
  4  7  1  0  0  0  0
  7  8  1  0  0  0  0
  7  9  1  0  0  0  0
  7 10  1  0  0  0  0
 10 11  1  0  0  0  0
 10 12  1  0  0  0  0
 10 13  1  0  0  0  0
 13 14  1  0  0  0  0
 13 15  1  0  0  0  0
 13 16  1  0  0  0  0
 16 17  1  0  0  0  0
 16 18  1  0  0  0  0
 16 19  1  0  0  0  0
 19 20  1  0  0  0  0
 19 21  1  0  0  0  0
 19 22  1  0  0  0  0
  1 23  1  0  0  0  0
 23 24  1  0  0  0  0
 23 25  1  0  0  0  0
 23 26  1  0  0  0  0
M  END
> <VConfSearch Rank>
347

> <Conf_Id>
46

> <Delta U+W>
0.496

> <U+W>
22.338

> <U>
71.138

> <W>
-48.799

> <W(PB)>
-51.136

> <W(SA)>
2.337

> <Valence>
2.016

> <Coulomb>
68.932

> <VdW>
0.190

> <VdW6>
-5.902

> <VdW12>
6.092

> <Bond>
0.149

> <Angle>
0.477

> <Pdih>
1.390

> <Idih>
0.000

> <Tether>
0.000

$$$$
VeraChem MOL file


 26 25  0  0  0  0  0  0  0  0999 V2000     
   20.7174   17.5414   25.7673 N   0  3  0  0  0  0  0  0  0  0  0  0
   20.9924   16.5551   25.6398 H   0  0  0  0  0  0  0  0  0  0  0  0
   19.7728   17.5116   26.1817 H   0  0  0  0  0  0  0  0  0  0  0  0
   20.6792   18.2509   24.4288 C   0  0  0  0  0  0  0  0  0  0  0  0
   21.6929   18.2512   24.0204 H   0  0  0  0  0  0  0  0  0  0  0  0
   20.3799   19.2860   24.6095 H   0  0  0  0  0  0  0  0  0  0  0  0
   19.7146   17.5973   23.4206 C   0  0  0  0  0  0  0  0  0  0  0  0
   19.9994   16.5459   23.2812 H   0  0  0  0  0  0  0  0  0  0  0  0
   18.6963   17.5953   23.8317 H   0  0  0  0  0  0  0  0  0  0  0  0
   19.7184   18.3049   22.0449 C   0  0  0  0  0  0  0  0  0  0  0  0
   19.0822   17.7347   21.3538 H   0  0  0  0  0  0  0  0  0  0  0  0
   20.7331   18.2811   21.6236 H   0  0  0  0  0  0  0  0  0  0  0  0
   19.2147   19.7670   22.1115 C   0  0  0  0  0  0  0  0  0  0  0  0
   18.2136   19.7903   22.5639 H   0  0  0  0  0  0  0  0  0  0  0  0
   19.8712   20.3614   22.7610 H   0  0  0  0  0  0  0  0  0  0  0  0
   19.1613   20.4201   20.7123 C   0  0  0  0  0  0  0  0  0  0  0  0
   18.4996   19.8380   20.0555 H   0  0  0  0  0  0  0  0  0  0  0  0
   20.1603   20.3988   20.2545 H   0  0  0  0  0  0  0  0  0  0  0  0
   18.6604   21.8786   20.7802 C   0  0  0  0  0  0  0  0  0  0  0  0
   17.6485   21.9294   21.2030 H   0  0  0  0  0  0  0  0  0  0  0  0
   18.6290   22.3248   19.7777 H   0  0  0  0  0  0  0  0  0  0  0  0
   19.3222   22.4951   21.4023 H   0  0  0  0  0  0  0  0  0  0  0  0
   21.6883   18.2501   26.7016 C   0  0  0  0  0  0  0  0  0  0  0  0
   21.7065   17.7292   27.6616 H   0  0  0  0  0  0  0  0  0  0  0  0
   22.6862   18.2399   26.2576 H   0  0  0  0  0  0  0  0  0  0  0  0
   21.3586   19.2811   26.8477 H   0  0  0  0  0  0  0  0  0  0  0  0
  1  2  1  0  0  0  0
  1  3  1  0  0  0  0
  1  4  1  0  0  0  0
  4  5  1  0  0  0  0
  4  6  1  0  0  0  0
  4  7  1  0  0  0  0
  7  8  1  0  0  0  0
  7  9  1  0  0  0  0
  7 10  1  0  0  0  0
 10 11  1  0  0  0  0
 10 12  1  0  0  0  0
 10 13  1  0  0  0  0
 13 14  1  0  0  0  0
 13 15  1  0  0  0  0
 13 16  1  0  0  0  0
 16 17  1  0  0  0  0
 16 18  1  0  0  0  0
 16 19  1  0  0  0  0
 19 20  1  0  0  0  0
 19 21  1  0  0  0  0
 19 22  1  0  0  0  0
  1 23  1  0  0  0  0
 23 24  1  0  0  0  0
 23 25  1  0  0  0  0
 23 26  1  0  0  0  0
M  END
> <VConfSearch Rank>
348

> <Conf_Id>
45

> <Delta U+W>
0.471

> <U+W>
22.313

> <U>
71.138

> <W>
-48.825

> <W(PB)>
-51.169

> <W(SA)>
2.344

> <Valence>
2.016

> <Coulomb>
68.932

> <VdW>
0.190

> <VdW6>
-5.902

> <VdW12>
6.092

> <Bond>
0.149

> <Angle>
0.477

> <Pdih>
1.390

> <Idih>
0.000

> <Tether>
0.000

$$$$
VeraChem MOL file


 26 25  0  0  0  0  0  0  0  0999 V2000     
   21.1005   16.8910   24.2151 N   0  3  0  0  0  0  0  0  0  0  0  0
   21.5967   17.6836   24.6495 H   0  0  0  0  0  0  0  0  0  0  0  0
   21.5267   16.7753   23.2826 H   0  0  0  0  0  0  0  0  0  0  0  0
   19.6249   17.2129   24.0781 C   0  0  0  0  0  0  0  0  0  0  0  0
   19.2121   17.3371   25.0825 H   0  0  0  0  0  0  0  0  0  0  0  0
   19.1405   16.3497   23.6145 H   0  0  0  0  0  0  0  0  0  0  0  0
   19.3359   18.4732   23.2391 C   0  0  0  0  0  0  0  0  0  0  0  0
   19.7525   18.3375   22.2331 H   0  0  0  0  0  0  0  0  0  0  0  0
   18.2485   18.5685   23.1196 H   0  0  0  0  0  0  0  0  0  0  0  0
   19.8961   19.7627   23.8900 C   0  0  0  0  0  0  0  0  0  0  0  0
   20.9926   19.7185   23.9333 H   0  0  0  0  0  0  0  0  0  0  0  0
   19.5471   19.8175   24.9307 H   0  0  0  0  0  0  0  0  0  0  0  0
   19.4663   21.0590   23.1599 C   0  0  0  0  0  0  0  0  0  0  0  0
   18.3696   21.1215   23.1345 H   0  0  0  0  0  0  0  0  0  0  0  0
   19.8097   21.9208   23.7489 H   0  0  0  0  0  0  0  0  0  0  0  0
   20.0290   21.1756   21.7233 C   0  0  0  0  0  0  0  0  0  0  0  0
   19.6368   20.3648   21.0952 H   0  0  0  0  0  0  0  0  0  0  0  0
   21.1221   21.0638   21.7424 H   0  0  0  0  0  0  0  0  0  0  0  0
   19.6650   22.5296   21.0775 C   0  0  0  0  0  0  0  0  0  0  0  0
   18.5764   22.6580   21.0167 H   0  0  0  0  0  0  0  0  0  0  0  0
   20.0690   22.5944   20.0588 H   0  0  0  0  0  0  0  0  0  0  0  0
   20.0761   23.3670   21.6562 H   0  0  0  0  0  0  0  0  0  0  0  0
   21.2808   15.6284   25.0462 C   0  0  0  0  0  0  0  0  0  0  0  0
   20.7739   14.7972   24.5510 H   0  0  0  0  0  0  0  0  0  0  0  0
   22.3468   15.4086   25.1374 H   0  0  0  0  0  0  0  0  0  0  0  0
   20.8505   15.7864   26.0376 H   0  0  0  0  0  0  0  0  0  0  0  0
  1  2  1  0  0  0  0
  1  3  1  0  0  0  0
  1  4  1  0  0  0  0
  4  5  1  0  0  0  0
  4  6  1  0  0  0  0
  4  7  1  0  0  0  0
  7  8  1  0  0  0  0
  7  9  1  0  0  0  0
  7 10  1  0  0  0  0
 10 11  1  0  0  0  0
 10 12  1  0  0  0  0
 10 13  1  0  0  0  0
 13 14  1  0  0  0  0
 13 15  1  0  0  0  0
 13 16  1  0  0  0  0
 16 17  1  0  0  0  0
 16 18  1  0  0  0  0
 16 19  1  0  0  0  0
 19 20  1  0  0  0  0
 19 21  1  0  0  0  0
 19 22  1  0  0  0  0
  1 23  1  0  0  0  0
 23 24  1  0  0  0  0
 23 25  1  0  0  0  0
 23 26  1  0  0  0  0
M  END
> <VConfSearch Rank>
349

> <Conf_Id>
143

> <Delta U+W>
0.915

> <U+W>
22.757

> <U>
71.994

> <W>
-49.237

> <W(PB)>
-51.537

> <W(SA)>
2.300

> <Valence>
2.376

> <Coulomb>
69.315

> <VdW>
0.303

> <VdW6>
-6.508

> <VdW12>
6.810

> <Bond>
0.182

> <Angle>
0.660

> <Pdih>
1.534

> <Idih>
0.000

> <Tether>
0.000

$$$$
VeraChem MOL file


 26 25  0  0  0  0  0  0  0  0999 V2000     
   22.5759   19.5477   23.4461 N   0  3  0  0  0  0  0  0  0  0  0  0
   22.5908   18.6717   22.9026 H   0  0  0  0  0  0  0  0  0  0  0  0
   22.6322   19.2600   24.4354 H   0  0  0  0  0  0  0  0  0  0  0  0
   21.2815   20.2968   23.1936 C   0  0  0  0  0  0  0  0  0  0  0  0
   21.2526   20.5756   22.1372 H   0  0  0  0  0  0  0  0  0  0  0  0
   21.3122   21.2138   23.7875 H   0  0  0  0  0  0  0  0  0  0  0  0
   20.0132   19.4984   23.5546 C   0  0  0  0  0  0  0  0  0  0  0  0
   20.0584   19.1934   24.6085 H   0  0  0  0  0  0  0  0  0  0  0  0
   19.1537   20.1721   23.4529 H   0  0  0  0  0  0  0  0  0  0  0  0
   19.8067   18.2605   22.6480 C   0  0  0  0  0  0  0  0  0  0  0  0
   20.7106   17.6377   22.6671 H   0  0  0  0  0  0  0  0  0  0  0  0
   19.6844   18.5888   21.6065 H   0  0  0  0  0  0  0  0  0  0  0  0
   18.6045   17.3668   23.0499 C   0  0  0  0  0  0  0  0  0  0  0  0
   18.5895   16.5070   22.3659 H   0  0  0  0  0  0  0  0  0  0  0  0
   18.7663   16.9438   24.0510 H   0  0  0  0  0  0  0  0  0  0  0  0
   17.2206   18.0628   22.9790 C   0  0  0  0  0  0  0  0  0  0  0  0
   16.4765   17.3283   22.6403 H   0  0  0  0  0  0  0  0  0  0  0  0
   17.2295   18.8553   22.2177 H   0  0  0  0  0  0  0  0  0  0  0  0
   16.7466   18.6276   24.3388 C   0  0  0  0  0  0  0  0  0  0  0  0
   17.4315   19.3863   24.7329 H   0  0  0  0  0  0  0  0  0  0  0  0
   16.6623   17.8284   25.0866 H   0  0  0  0  0  0  0  0  0  0  0  0
   15.7577   19.0932   24.2374 H   0  0  0  0  0  0  0  0  0  0  0  0
   23.7634   20.4254   23.0759 C   0  0  0  0  0  0  0  0  0  0  0  0
   23.7444   21.3311   23.6860 H   0  0  0  0  0  0  0  0  0  0  0  0
   24.6880   19.8744   23.2621 H   0  0  0  0  0  0  0  0  0  0  0  0
   23.6983   20.6901   22.0182 H   0  0  0  0  0  0  0  0  0  0  0  0
  1  2  1  0  0  0  0
  1  3  1  0  0  0  0
  1  4  1  0  0  0  0
  4  5  1  0  0  0  0
  4  6  1  0  0  0  0
  4  7  1  0  0  0  0
  7  8  1  0  0  0  0
  7  9  1  0  0  0  0
  7 10  1  0  0  0  0
 10 11  1  0  0  0  0
 10 12  1  0  0  0  0
 10 13  1  0  0  0  0
 13 14  1  0  0  0  0
 13 15  1  0  0  0  0
 13 16  1  0  0  0  0
 16 17  1  0  0  0  0
 16 18  1  0  0  0  0
 16 19  1  0  0  0  0
 19 20  1  0  0  0  0
 19 21  1  0  0  0  0
 19 22  1  0  0  0  0
  1 23  1  0  0  0  0
 23 24  1  0  0  0  0
 23 25  1  0  0  0  0
 23 26  1  0  0  0  0
M  END
> <VConfSearch Rank>
350

> <Conf_Id>
76

> <Delta U+W>
3.468

> <U+W>
25.310

> <U>
74.594

> <W>
-49.283

> <W(PB)>
-51.537

> <W(SA)>
2.253

> <Valence>
4.886

> <Coulomb>
69.332

> <VdW>
0.376

> <VdW6>
-7.329

> <VdW12>
7.705

> <Bond>
0.232

> <Angle>
1.251

> <Pdih>
3.403

> <Idih>
0.000

> <Tether>
0.000

$$$$
VeraChem MOL file


 26 25  0  0  0  0  0  0  0  0999 V2000     
   18.3800   21.1751   22.9289 N   0  3  0  0  0  0  0  0  0  0  0  0
   17.6643   20.5314   23.3007 H   0  0  0  0  0  0  0  0  0  0  0  0
   18.2617   21.1550   21.9040 H   0  0  0  0  0  0  0  0  0  0  0  0
   19.7658   20.6905   23.3050 C   0  0  0  0  0  0  0  0  0  0  0  0
   19.8471   20.7200   24.3945 H   0  0  0  0  0  0  0  0  0  0  0  0
   20.4915   21.3924   22.8864 H   0  0  0  0  0  0  0  0  0  0  0  0
   20.0712   19.2681   22.8016 C   0  0  0  0  0  0  0  0  0  0  0  0
   19.3243   18.5753   23.2052 H   0  0  0  0  0  0  0  0  0  0  0  0
   19.9712   19.2413   21.7084 H   0  0  0  0  0  0  0  0  0  0  0  0
   21.4991   18.8241   23.2009 C   0  0  0  0  0  0  0  0  0  0  0  0
   21.6343   18.9013   24.2887 H   0  0  0  0  0  0  0  0  0  0  0  0
   22.2129   19.5314   22.7560 H   0  0  0  0  0  0  0  0  0  0  0  0
   21.8603   17.3943   22.7195 C   0  0  0  0  0  0  0  0  0  0  0  0
   21.3239   17.1573   21.7904 H   0  0  0  0  0  0  0  0  0  0  0  0
   22.9270   17.3818   22.4558 H   0  0  0  0  0  0  0  0  0  0  0  0
   21.6277   16.2773   23.7691 C   0  0  0  0  0  0  0  0  0  0  0  0
   22.2501   16.4681   24.6545 H   0  0  0  0  0  0  0  0  0  0  0  0
   21.9818   15.3256   23.3487 H   0  0  0  0  0  0  0  0  0  0  0  0
   20.1557   16.1081   24.2049 C   0  0  0  0  0  0  0  0  0  0  0  0
   19.4967   15.9821   23.3363 H   0  0  0  0  0  0  0  0  0  0  0  0
   19.8099   16.9721   24.7854 H   0  0  0  0  0  0  0  0  0  0  0  0
   20.0443   15.2210   24.8419 H   0  0  0  0  0  0  0  0  0  0  0  0
   18.1609   22.5835   23.4641 C   0  0  0  0  0  0  0  0  0  0  0  0
   18.2582   22.5735   24.5519 H   0  0  0  0  0  0  0  0  0  0  0  0
   18.9084   23.2523   23.0317 H   0  0  0  0  0  0  0  0  0  0  0  0
   17.1597   22.9205   23.1863 H   0  0  0  0  0  0  0  0  0  0  0  0
  1  2  1  0  0  0  0
  1  3  1  0  0  0  0
  1  4  1  0  0  0  0
  4  5  1  0  0  0  0
  4  6  1  0  0  0  0
  4  7  1  0  0  0  0
  7  8  1  0  0  0  0
  7  9  1  0  0  0  0
  7 10  1  0  0  0  0
 10 11  1  0  0  0  0
 10 12  1  0  0  0  0
 10 13  1  0  0  0  0
 13 14  1  0  0  0  0
 13 15  1  0  0  0  0
 13 16  1  0  0  0  0
 16 17  1  0  0  0  0
 16 18  1  0  0  0  0
 16 19  1  0  0  0  0
 19 20  1  0  0  0  0
 19 21  1  0  0  0  0
 19 22  1  0  0  0  0
  1 23  1  0  0  0  0
 23 24  1  0  0  0  0
 23 25  1  0  0  0  0
 23 26  1  0  0  0  0
M  END
> <VConfSearch Rank>
351

> <Conf_Id>
123

> <Delta U+W>
3.101

> <U+W>
24.943

> <U>
74.070

> <W>
-49.127

> <W(PB)>
-51.421

> <W(SA)>
2.295

> <Valence>
4.690

> <Coulomb>
69.115

> <VdW>
0.266

> <VdW6>
-6.809

> <VdW12>
7.075

> <Bond>
0.212

> <Angle>
1.133

> <Pdih>
3.345

> <Idih>
0.000

> <Tether>
0.000

$$$$
VeraChem MOL file


 26 25  0  0  0  0  0  0  0  0999 V2000     
   21.9856   18.1174   24.8707 N   0  3  0  0  0  0  0  0  0  0  0  0
   22.3145   17.2947   24.3419 H   0  0  0  0  0  0  0  0  0  0  0  0
   21.1089   17.8212   25.3256 H   0  0  0  0  0  0  0  0  0  0  0  0
   21.7173   19.2723   23.9251 C   0  0  0  0  0  0  0  0  0  0  0  0
   22.6701   19.5520   23.4684 H   0  0  0  0  0  0  0  0  0  0  0  0
   21.3620   20.1185   24.5185 H   0  0  0  0  0  0  0  0  0  0  0  0
   20.6950   18.9508   22.8171 C   0  0  0  0  0  0  0  0  0  0  0  0
   20.6564   19.8031   22.1296 H   0  0  0  0  0  0  0  0  0  0  0  0
   21.0532   18.0966   22.2275 H   0  0  0  0  0  0  0  0  0  0  0  0
   19.2817   18.6489   23.3778 C   0  0  0  0  0  0  0  0  0  0  0  0
   18.9553   19.4564   24.0477 H   0  0  0  0  0  0  0  0  0  0  0  0
   19.3373   17.7435   23.9968 H   0  0  0  0  0  0  0  0  0  0  0  0
   18.2189   18.4134   22.2727 C   0  0  0  0  0  0  0  0  0  0  0  0
   18.6900   17.9952   21.3725 H   0  0  0  0  0  0  0  0  0  0  0  0
   17.5219   17.6412   22.6269 H   0  0  0  0  0  0  0  0  0  0  0  0
   17.3796   19.6636   21.9034 C   0  0  0  0  0  0  0  0  0  0  0  0
   16.8306   20.0134   22.7889 H   0  0  0  0  0  0  0  0  0  0  0  0
   16.6161   19.3668   21.1708 H   0  0  0  0  0  0  0  0  0  0  0  0
   18.2012   20.8320   21.3159 C   0  0  0  0  0  0  0  0  0  0  0  0
   18.8072   20.5010   20.4627 H   0  0  0  0  0  0  0  0  0  0  0  0
   18.8669   21.2704   22.0695 H   0  0  0  0  0  0  0  0  0  0  0  0
   17.5349   21.6303   20.9642 H   0  0  0  0  0  0  0  0  0  0  0  0
   23.0151   18.5296   25.9136 C   0  0  0  0  0  0  0  0  0  0  0  0
   22.6311   19.3806   26.4805 H   0  0  0  0  0  0  0  0  0  0  0  0
   23.1984   17.6898   26.5876 H   0  0  0  0  0  0  0  0  0  0  0  0
   23.9437   18.8085   25.4107 H   0  0  0  0  0  0  0  0  0  0  0  0
  1  2  1  0  0  0  0
  1  3  1  0  0  0  0
  1  4  1  0  0  0  0
  4  5  1  0  0  0  0
  4  6  1  0  0  0  0
  4  7  1  0  0  0  0
  7  8  1  0  0  0  0
  7  9  1  0  0  0  0
  7 10  1  0  0  0  0
 10 11  1  0  0  0  0
 10 12  1  0  0  0  0
 10 13  1  0  0  0  0
 13 14  1  0  0  0  0
 13 15  1  0  0  0  0
 13 16  1  0  0  0  0
 16 17  1  0  0  0  0
 16 18  1  0  0  0  0
 16 19  1  0  0  0  0
 19 20  1  0  0  0  0
 19 21  1  0  0  0  0
 19 22  1  0  0  0  0
  1 23  1  0  0  0  0
 23 24  1  0  0  0  0
 23 25  1  0  0  0  0
 23 26  1  0  0  0  0
M  END
> <VConfSearch Rank>
352

> <Conf_Id>
111

> <Delta U+W>
3.383

> <U+W>
25.225

> <U>
74.516

> <W>
-49.292

> <W(PB)>
-51.558

> <W(SA)>
2.266

> <Valence>
4.842

> <Coulomb>
69.333

> <VdW>
0.342

> <VdW6>
-7.369

> <VdW12>
7.711

> <Bond>
0.232

> <Angle>
1.153

> <Pdih>
3.457

> <Idih>
0.000

> <Tether>
0.000

$$$$
VeraChem MOL file


 26 25  0  0  0  0  0  0  0  0999 V2000     
   18.9864   17.3277   24.4857 N   0  3  0  0  0  0  0  0  0  0  0  0
   18.1193   17.5822   24.9837 H   0  0  0  0  0  0  0  0  0  0  0  0
   19.7207   17.9348   24.8800 H   0  0  0  0  0  0  0  0  0  0  0  0
   18.8337   17.5973   23.0016 C   0  0  0  0  0  0  0  0  0  0  0  0
   18.0413   16.9447   22.6264 H   0  0  0  0  0  0  0  0  0  0  0  0
   19.7671   17.3134   22.5100 H   0  0  0  0  0  0  0  0  0  0  0  0
   18.4911   19.0636   22.6654 C   0  0  0  0  0  0  0  0  0  0  0  0
   18.3542   19.1525   21.5795 H   0  0  0  0  0  0  0  0  0  0  0  0
   17.5229   19.3178   23.1168 H   0  0  0  0  0  0  0  0  0  0  0  0
   19.5572   20.0878   23.1309 C   0  0  0  0  0  0  0  0  0  0  0  0
   19.6408   20.0702   24.2256 H   0  0  0  0  0  0  0  0  0  0  0  0
   19.2002   21.0922   22.8687 H   0  0  0  0  0  0  0  0  0  0  0  0
   20.9507   19.8506   22.4946 C   0  0  0  0  0  0  0  0  0  0  0  0
   21.2986   18.8377   22.7364 H   0  0  0  0  0  0  0  0  0  0  0  0
   20.8703   19.8964   21.3998 H   0  0  0  0  0  0  0  0  0  0  0  0
   22.0265   20.8547   22.9753 C   0  0  0  0  0  0  0  0  0  0  0  0
   23.0007   20.5468   22.5702 H   0  0  0  0  0  0  0  0  0  0  0  0
   22.1200   20.8049   24.0692 H   0  0  0  0  0  0  0  0  0  0  0  0
   21.7479   22.3124   22.5427 C   0  0  0  0  0  0  0  0  0  0  0  0
   20.8471   22.7120   23.0245 H   0  0  0  0  0  0  0  0  0  0  0  0
   21.6175   22.3837   21.4551 H   0  0  0  0  0  0  0  0  0  0  0  0
   22.5865   22.9628   22.8230 H   0  0  0  0  0  0  0  0  0  0  0  0
   19.3252   15.8614   24.7146 C   0  0  0  0  0  0  0  0  0  0  0  0
   19.4333   15.6817   25.7866 H   0  0  0  0  0  0  0  0  0  0  0  0
   18.5198   15.2406   24.3160 H   0  0  0  0  0  0  0  0  0  0  0  0
   20.2617   15.6253   24.2046 H   0  0  0  0  0  0  0  0  0  0  0  0
  1  2  1  0  0  0  0
  1  3  1  0  0  0  0
  1  4  1  0  0  0  0
  4  5  1  0  0  0  0
  4  6  1  0  0  0  0
  4  7  1  0  0  0  0
  7  8  1  0  0  0  0
  7  9  1  0  0  0  0
  7 10  1  0  0  0  0
 10 11  1  0  0  0  0
 10 12  1  0  0  0  0
 10 13  1  0  0  0  0
 13 14  1  0  0  0  0
 13 15  1  0  0  0  0
 13 16  1  0  0  0  0
 16 17  1  0  0  0  0
 16 18  1  0  0  0  0
 16 19  1  0  0  0  0
 19 20  1  0  0  0  0
 19 21  1  0  0  0  0
 19 22  1  0  0  0  0
  1 23  1  0  0  0  0
 23 24  1  0  0  0  0
 23 25  1  0  0  0  0
 23 26  1  0  0  0  0
M  END
> <VConfSearch Rank>
353

> <Conf_Id>
126

> <Delta U+W>
1.519

> <U+W>
23.361

> <U>
72.579

> <W>
-49.218

> <W(PB)>
-51.496

> <W(SA)>
2.279

> <Valence>
2.678

> <Coulomb>
69.622

> <VdW>
0.279

> <VdW6>
-7.328

> <VdW12>
7.608

> <Bond>
0.212

> <Angle>
0.911

> <Pdih>
1.555

> <Idih>
0.000

> <Tether>
0.000

$$$$
VeraChem MOL file


 26 25  0  0  0  0  0  0  0  0999 V2000     
   17.9928   19.5013   24.4331 N   0  3  0  0  0  0  0  0  0  0  0  0
   18.3642   20.1243   23.7003 H   0  0  0  0  0  0  0  0  0  0  0  0
   18.0735   20.0312   25.3147 H   0  0  0  0  0  0  0  0  0  0  0  0
   18.8248   18.2360   24.5071 C   0  0  0  0  0  0  0  0  0  0  0  0
   18.7114   17.7026   23.5605 H   0  0  0  0  0  0  0  0  0  0  0  0
   18.4068   17.6109   25.3003 H   0  0  0  0  0  0  0  0  0  0  0  0
   20.3206   18.4880   24.7889 C   0  0  0  0  0  0  0  0  0  0  0  0
   20.4240   18.9718   25.7693 H   0  0  0  0  0  0  0  0  0  0  0  0
   20.8309   17.5192   24.8715 H   0  0  0  0  0  0  0  0  0  0  0  0
   21.0328   19.3500   23.7156 C   0  0  0  0  0  0  0  0  0  0  0  0
   22.0754   19.4896   24.0293 H   0  0  0  0  0  0  0  0  0  0  0  0
   20.5870   20.3531   23.6845 H   0  0  0  0  0  0  0  0  0  0  0  0
   20.9974   18.7163   22.3014 C   0  0  0  0  0  0  0  0  0  0  0  0
   21.4692   17.7243   22.3284 H   0  0  0  0  0  0  0  0  0  0  0  0
   19.9553   18.5541   21.9961 H   0  0  0  0  0  0  0  0  0  0  0  0
   21.6844   19.5849   21.2196 C   0  0  0  0  0  0  0  0  0  0  0  0
   21.2087   20.5747   21.1794 H   0  0  0  0  0  0  0  0  0  0  0  0
   21.5138   19.1228   20.2371 H   0  0  0  0  0  0  0  0  0  0  0  0
   23.2067   19.7476   21.4334 C   0  0  0  0  0  0  0  0  0  0  0  0
   23.7016   18.7708   21.5101 H   0  0  0  0  0  0  0  0  0  0  0  0
   23.4285   20.3184   22.3434 H   0  0  0  0  0  0  0  0  0  0  0  0
   23.6574   20.2861   20.5897 H   0  0  0  0  0  0  0  0  0  0  0  0
   16.5388   19.1504   24.1501 C   0  0  0  0  0  0  0  0  0  0  0  0
   16.4764   18.6188   23.1980 H   0  0  0  0  0  0  0  0  0  0  0  0
   16.1598   18.5156   24.9540 H   0  0  0  0  0  0  0  0  0  0  0  0
   15.9518   20.0701   24.0983 H   0  0  0  0  0  0  0  0  0  0  0  0
  1  2  1  0  0  0  0
  1  3  1  0  0  0  0
  1  4  1  0  0  0  0
  4  5  1  0  0  0  0
  4  6  1  0  0  0  0
  4  7  1  0  0  0  0
  7  8  1  0  0  0  0
  7  9  1  0  0  0  0
  7 10  1  0  0  0  0
 10 11  1  0  0  0  0
 10 12  1  0  0  0  0
 10 13  1  0  0  0  0
 13 14  1  0  0  0  0
 13 15  1  0  0  0  0
 13 16  1  0  0  0  0
 16 17  1  0  0  0  0
 16 18  1  0  0  0  0
 16 19  1  0  0  0  0
 19 20  1  0  0  0  0
 19 21  1  0  0  0  0
 19 22  1  0  0  0  0
  1 23  1  0  0  0  0
 23 24  1  0  0  0  0
 23 25  1  0  0  0  0
 23 26  1  0  0  0  0
M  END
> <VConfSearch Rank>
354

> <Conf_Id>
134

> <Delta U+W>
1.464

> <U+W>
23.306

> <U>
72.579

> <W>
-49.273

> <W(PB)>
-51.540

> <W(SA)>
2.267

> <Valence>
2.677

> <Coulomb>
69.622

> <VdW>
0.280

> <VdW6>
-7.328

> <VdW12>
7.608

> <Bond>
0.212

> <Angle>
0.911

> <Pdih>
1.555

> <Idih>
0.000

> <Tether>
0.000

$$$$
VeraChem MOL file


 26 25  0  0  0  0  0  0  0  0999 V2000     
   19.3919   19.9359   20.7618 N   0  3  0  0  0  0  0  0  0  0  0  0
   18.4273   19.7065   21.0476 H   0  0  0  0  0  0  0  0  0  0  0  0
   19.7066   19.1362   20.1905 H   0  0  0  0  0  0  0  0  0  0  0  0
   20.2773   20.0870   21.9825 C   0  0  0  0  0  0  0  0  0  0  0  0
   19.9069   20.9361   22.5623 H   0  0  0  0  0  0  0  0  0  0  0  0
   21.2875   20.3203   21.6369 H   0  0  0  0  0  0  0  0  0  0  0  0
   20.3109   18.8294   22.8697 C   0  0  0  0  0  0  0  0  0  0  0  0
   19.2897   18.5945   23.1954 H   0  0  0  0  0  0  0  0  0  0  0  0
   20.6684   17.9753   22.2795 H   0  0  0  0  0  0  0  0  0  0  0  0
   21.2268   19.0323   24.0995 C   0  0  0  0  0  0  0  0  0  0  0  0
   20.8481   19.8614   24.7121 H   0  0  0  0  0  0  0  0  0  0  0  0
   22.2229   19.3431   23.7549 H   0  0  0  0  0  0  0  0  0  0  0  0
   21.3871   17.7597   24.9713 C   0  0  0  0  0  0  0  0  0  0  0  0
   21.8716   16.9756   24.3732 H   0  0  0  0  0  0  0  0  0  0  0  0
   22.0813   17.9814   25.7936 H   0  0  0  0  0  0  0  0  0  0  0  0
   20.0720   17.1933   25.5655 C   0  0  0  0  0  0  0  0  0  0  0  0
   20.3129   16.2996   26.1579 H   0  0  0  0  0  0  0  0  0  0  0  0
   19.4087   16.8490   24.7608 H   0  0  0  0  0  0  0  0  0  0  0  0
   19.3205   18.1994   26.4667 C   0  0  0  0  0  0  0  0  0  0  0  0
   19.9704   18.5726   27.2688 H   0  0  0  0  0  0  0  0  0  0  0  0
   18.4505   17.7210   26.9348 H   0  0  0  0  0  0  0  0  0  0  0  0
   18.9546   19.0592   25.8920 H   0  0  0  0  0  0  0  0  0  0  0  0
   19.4153   21.2191   19.9429 C   0  0  0  0  0  0  0  0  0  0  0  0
   20.4399   21.4232   19.6242 H   0  0  0  0  0  0  0  0  0  0  0  0
   18.7740   21.0969   19.0671 H   0  0  0  0  0  0  0  0  0  0  0  0
   19.0474   22.0439   20.5571 H   0  0  0  0  0  0  0  0  0  0  0  0
  1  2  1  0  0  0  0
  1  3  1  0  0  0  0
  1  4  1  0  0  0  0
  4  5  1  0  0  0  0
  4  6  1  0  0  0  0
  4  7  1  0  0  0  0
  7  8  1  0  0  0  0
  7  9  1  0  0  0  0
  7 10  1  0  0  0  0
 10 11  1  0  0  0  0
 10 12  1  0  0  0  0
 10 13  1  0  0  0  0
 13 14  1  0  0  0  0
 13 15  1  0  0  0  0
 13 16  1  0  0  0  0
 16 17  1  0  0  0  0
 16 18  1  0  0  0  0
 16 19  1  0  0  0  0
 19 20  1  0  0  0  0
 19 21  1  0  0  0  0
 19 22  1  0  0  0  0
  1 23  1  0  0  0  0
 23 24  1  0  0  0  0
 23 25  1  0  0  0  0
 23 26  1  0  0  0  0
M  END
> <VConfSearch Rank>
355

> <Conf_Id>
30

> <Delta U+W>
0.910

> <U+W>
22.752

> <U>
71.870

> <W>
-49.118

> <W(PB)>
-51.409

> <W(SA)>
2.290

> <Valence>
2.682

> <Coulomb>
68.933

> <VdW>
0.255

> <VdW6>
-6.833

> <VdW12>
7.088

> <Bond>
0.205

> <Angle>
1.003

> <Pdih>
1.473

> <Idih>
0.000

> <Tether>
0.000

$$$$
VeraChem MOL file


 26 25  0  0  0  0  0  0  0  0999 V2000     
   17.3568   19.1665   24.2866 N   0  3  0  0  0  0  0  0  0  0  0  0
   16.9206   19.8114   23.6094 H   0  0  0  0  0  0  0  0  0  0  0  0
   17.7403   19.7686   25.0316 H   0  0  0  0  0  0  0  0  0  0  0  0
   18.4711   18.3845   23.6205 C   0  0  0  0  0  0  0  0  0  0  0  0
   18.0254   17.7686   22.8353 H   0  0  0  0  0  0  0  0  0  0  0  0
   18.9104   17.7218   24.3703 H   0  0  0  0  0  0  0  0  0  0  0  0
   19.5670   19.2809   23.0161 C   0  0  0  0  0  0  0  0  0  0  0  0
   19.1193   19.9559   22.2748 H   0  0  0  0  0  0  0  0  0  0  0  0
   19.9942   19.9072   23.8094 H   0  0  0  0  0  0  0  0  0  0  0  0
   20.6790   18.4382   22.3483 C   0  0  0  0  0  0  0  0  0  0  0  0
   20.2210   17.7623   21.6127 H   0  0  0  0  0  0  0  0  0  0  0  0
   21.1545   17.7904   23.0969 H   0  0  0  0  0  0  0  0  0  0  0  0
   21.7543   19.2901   21.6251 C   0  0  0  0  0  0  0  0  0  0  0  0
   22.4771   18.6139   21.1481 H   0  0  0  0  0  0  0  0  0  0  0  0
   21.2782   19.8461   20.8058 H   0  0  0  0  0  0  0  0  0  0  0  0
   22.5237   20.2901   22.5259 C   0  0  0  0  0  0  0  0  0  0  0  0
   21.8385   21.0538   22.9175 H   0  0  0  0  0  0  0  0  0  0  0  0
   23.2514   20.8311   21.9048 H   0  0  0  0  0  0  0  0  0  0  0  0
   23.2743   19.6133   23.6953 C   0  0  0  0  0  0  0  0  0  0  0  0
   22.5782   19.1575   24.4103 H   0  0  0  0  0  0  0  0  0  0  0  0
   23.8757   20.3497   24.2438 H   0  0  0  0  0  0  0  0  0  0  0  0
   23.9526   18.8317   23.3292 H   0  0  0  0  0  0  0  0  0  0  0  0
   16.3198   18.2080   24.8554 C   0  0  0  0  0  0  0  0  0  0  0  0
   15.5232   18.7837   25.3320 H   0  0  0  0  0  0  0  0  0  0  0  0
   15.9048   17.6052   24.0446 H   0  0  0  0  0  0  0  0  0  0  0  0
   16.7971   17.5585   25.5925 H   0  0  0  0  0  0  0  0  0  0  0  0
  1  2  1  0  0  0  0
  1  3  1  0  0  0  0
  1  4  1  0  0  0  0
  4  5  1  0  0  0  0
  4  6  1  0  0  0  0
  4  7  1  0  0  0  0
  7  8  1  0  0  0  0
  7  9  1  0  0  0  0
  7 10  1  0  0  0  0
 10 11  1  0  0  0  0
 10 12  1  0  0  0  0
 10 13  1  0  0  0  0
 13 14  1  0  0  0  0
 13 15  1  0  0  0  0
 13 16  1  0  0  0  0
 16 17  1  0  0  0  0
 16 18  1  0  0  0  0
 16 19  1  0  0  0  0
 19 20  1  0  0  0  0
 19 21  1  0  0  0  0
 19 22  1  0  0  0  0
  1 23  1  0  0  0  0
 23 24  1  0  0  0  0
 23 25  1  0  0  0  0
 23 26  1  0  0  0  0
M  END
> <VConfSearch Rank>
356

> <Conf_Id>
29

> <Delta U+W>
0.886

> <U+W>
22.729

> <U>
71.870

> <W>
-49.141

> <W(PB)>
-51.404

> <W(SA)>
2.262

> <Valence>
2.682

> <Coulomb>
68.933

> <VdW>
0.255

> <VdW6>
-6.833

> <VdW12>
7.088

> <Bond>
0.205

> <Angle>
1.003

> <Pdih>
1.473

> <Idih>
0.000

> <Tether>
0.000

$$$$
VeraChem MOL file


 26 25  0  0  0  0  0  0  0  0999 V2000     
   17.7320   18.0902   24.2243 N   0  3  0  0  0  0  0  0  0  0  0  0
   17.3235   18.5761   25.0378 H   0  0  0  0  0  0  0  0  0  0  0  0
   18.3154   17.3363   24.6191 H   0  0  0  0  0  0  0  0  0  0  0  0
   18.5879   19.0473   23.4195 C   0  0  0  0  0  0  0  0  0  0  0  0
   17.9370   19.8346   23.0310 H   0  0  0  0  0  0  0  0  0  0  0  0
   19.0019   18.4934   22.5735 H   0  0  0  0  0  0  0  0  0  0  0  0
   19.7315   19.6771   24.2372 C   0  0  0  0  0  0  0  0  0  0  0  0
   19.3076   20.2009   25.1041 H   0  0  0  0  0  0  0  0  0  0  0  0
   20.3772   18.8866   24.6403 H   0  0  0  0  0  0  0  0  0  0  0  0
   20.5749   20.6794   23.4105 C   0  0  0  0  0  0  0  0  0  0  0  0
   21.3576   21.1052   24.0525 H   0  0  0  0  0  0  0  0  0  0  0  0
   19.9369   21.5260   23.1214 H   0  0  0  0  0  0  0  0  0  0  0  0
   21.2204   20.0861   22.1290 C   0  0  0  0  0  0  0  0  0  0  0  0
   20.4312   19.8142   21.4151 H   0  0  0  0  0  0  0  0  0  0  0  0
   21.8057   20.8736   21.6346 H   0  0  0  0  0  0  0  0  0  0  0  0
   22.1336   18.8551   22.3597 C   0  0  0  0  0  0  0  0  0  0  0  0
   22.5201   18.5188   21.3874 H   0  0  0  0  0  0  0  0  0  0  0  0
   21.5468   18.0155   22.7559 H   0  0  0  0  0  0  0  0  0  0  0  0
   23.3284   19.1449   23.2963 C   0  0  0  0  0  0  0  0  0  0  0  0
   23.9888   18.2705   23.3592 H   0  0  0  0  0  0  0  0  0  0  0  0
   22.9941   19.3802   24.3144 H   0  0  0  0  0  0  0  0  0  0  0  0
   23.9239   19.9894   22.9262 H   0  0  0  0  0  0  0  0  0  0  0  0
   16.6350   17.5102   23.3424 C   0  0  0  0  0  0  0  0  0  0  0  0
   16.0257   16.8231   23.9339 H   0  0  0  0  0  0  0  0  0  0  0  0
   16.0116   18.3230   22.9634 H   0  0  0  0  0  0  0  0  0  0  0  0
   17.0913   16.9735   22.5077 H   0  0  0  0  0  0  0  0  0  0  0  0
  1  2  1  0  0  0  0
  1  3  1  0  0  0  0
  1  4  1  0  0  0  0
  4  5  1  0  0  0  0
  4  6  1  0  0  0  0
  4  7  1  0  0  0  0
  7  8  1  0  0  0  0
  7  9  1  0  0  0  0
  7 10  1  0  0  0  0
 10 11  1  0  0  0  0
 10 12  1  0  0  0  0
 10 13  1  0  0  0  0
 13 14  1  0  0  0  0
 13 15  1  0  0  0  0
 13 16  1  0  0  0  0
 16 17  1  0  0  0  0
 16 18  1  0  0  0  0
 16 19  1  0  0  0  0
 19 20  1  0  0  0  0
 19 21  1  0  0  0  0
 19 22  1  0  0  0  0
  1 23  1  0  0  0  0
 23 24  1  0  0  0  0
 23 25  1  0  0  0  0
 23 26  1  0  0  0  0
M  END
> <VConfSearch Rank>
357

> <Conf_Id>
82

> <Delta U+W>
1.026

> <U+W>
22.868

> <U>
72.455

> <W>
-49.586

> <W(PB)>
-51.821

> <W(SA)>
2.234

> <Valence>
2.908

> <Coulomb>
69.435

> <VdW>
0.112

> <VdW6>
-7.765

> <VdW12>
7.877

> <Bond>
0.233

> <Angle>
1.170

> <Pdih>
1.506

> <Idih>
0.000

> <Tether>
0.000

$$$$
VeraChem MOL file


 26 25  0  0  0  0  0  0  0  0999 V2000     
   21.3342   18.8028   25.6175 N   0  3  0  0  0  0  0  0  0  0  0  0
   20.9838   19.7497   25.8303 H   0  0  0  0  0  0  0  0  0  0  0  0
   22.3624   18.8882   25.5990 H   0  0  0  0  0  0  0  0  0  0  0  0
   20.8231   18.3471   24.2658 C   0  0  0  0  0  0  0  0  0  0  0  0
   19.7347   18.2735   24.3285 H   0  0  0  0  0  0  0  0  0  0  0  0
   21.2257   17.3495   24.0732 H   0  0  0  0  0  0  0  0  0  0  0  0
   21.2138   19.2945   23.1155 C   0  0  0  0  0  0  0  0  0  0  0  0
   20.8228   20.3002   23.3153 H   0  0  0  0  0  0  0  0  0  0  0  0
   22.3073   19.3895   23.0837 H   0  0  0  0  0  0  0  0  0  0  0  0
   20.7147   18.7967   21.7363 C   0  0  0  0  0  0  0  0  0  0  0  0
   21.2142   17.8469   21.4999 H   0  0  0  0  0  0  0  0  0  0  0  0
   21.0401   19.5025   20.9605 H   0  0  0  0  0  0  0  0  0  0  0  0
   19.1795   18.5865   21.6360 C   0  0  0  0  0  0  0  0  0  0  0  0
   18.9372   18.2534   20.6174 H   0  0  0  0  0  0  0  0  0  0  0  0
   18.8804   17.7601   22.2947 H   0  0  0  0  0  0  0  0  0  0  0  0
   18.3200   19.8318   21.9722 C   0  0  0  0  0  0  0  0  0  0  0  0
   18.4648   20.1216   23.0215 H   0  0  0  0  0  0  0  0  0  0  0  0
   17.2591   19.5604   21.8794 H   0  0  0  0  0  0  0  0  0  0  0  0
   18.6061   21.0407   21.0526 C   0  0  0  0  0  0  0  0  0  0  0  0
   19.6267   21.4187   21.1903 H   0  0  0  0  0  0  0  0  0  0  0  0
   17.9158   21.8648   21.2745 H   0  0  0  0  0  0  0  0  0  0  0  0
   18.4788   20.7715   19.9961 H   0  0  0  0  0  0  0  0  0  0  0  0
   20.8994   17.8181   26.6941 C   0  0  0  0  0  0  0  0  0  0  0  0
   21.3091   16.8319   26.4652 H   0  0  0  0  0  0  0  0  0  0  0  0
   21.2741   18.1575   27.6624 H   0  0  0  0  0  0  0  0  0  0  0  0
   19.8085   17.7697   26.7172 H   0  0  0  0  0  0  0  0  0  0  0  0
  1  2  1  0  0  0  0
  1  3  1  0  0  0  0
  1  4  1  0  0  0  0
  4  5  1  0  0  0  0
  4  6  1  0  0  0  0
  4  7  1  0  0  0  0
  7  8  1  0  0  0  0
  7  9  1  0  0  0  0
  7 10  1  0  0  0  0
 10 11  1  0  0  0  0
 10 12  1  0  0  0  0
 10 13  1  0  0  0  0
 13 14  1  0  0  0  0
 13 15  1  0  0  0  0
 13 16  1  0  0  0  0
 16 17  1  0  0  0  0
 16 18  1  0  0  0  0
 16 19  1  0  0  0  0
 19 20  1  0  0  0  0
 19 21  1  0  0  0  0
 19 22  1  0  0  0  0
  1 23  1  0  0  0  0
 23 24  1  0  0  0  0
 23 25  1  0  0  0  0
 23 26  1  0  0  0  0
M  END
> <VConfSearch Rank>
358

> <Conf_Id>
71

> <Delta U+W>
1.096

> <U+W>
22.938

> <U>
72.455

> <W>
-49.517

> <W(PB)>
-51.795

> <W(SA)>
2.278

> <Valence>
2.908

> <Coulomb>
69.435

> <VdW>
0.112

> <VdW6>
-7.766

> <VdW12>
7.877

> <Bond>
0.233

> <Angle>
1.170

> <Pdih>
1.506

> <Idih>
0.000

> <Tether>
0.000

$$$$
VeraChem MOL file


 26 25  0  0  0  0  0  0  0  0999 V2000     
   19.4859   21.1160   24.5914 N   0  3  0  0  0  0  0  0  0  0  0  0
   20.4373   20.8768   24.2747 H   0  0  0  0  0  0  0  0  0  0  0  0
   19.5953   21.4168   25.5728 H   0  0  0  0  0  0  0  0  0  0  0  0
   18.5940   19.8861   24.5309 C   0  0  0  0  0  0  0  0  0  0  0  0
   17.5940   20.1851   24.8551 H   0  0  0  0  0  0  0  0  0  0  0  0
   18.9794   19.1672   25.2579 H   0  0  0  0  0  0  0  0  0  0  0  0
   18.5064   19.2063   23.1454 C   0  0  0  0  0  0  0  0  0  0  0  0
   17.8461   18.3326   23.2250 H   0  0  0  0  0  0  0  0  0  0  0  0
   18.0193   19.8881   22.4364 H   0  0  0  0  0  0  0  0  0  0  0  0
   19.8742   18.7614   22.5688 C   0  0  0  0  0  0  0  0  0  0  0  0
   20.5152   19.6389   22.4104 H   0  0  0  0  0  0  0  0  0  0  0  0
   19.6995   18.3281   21.5755 H   0  0  0  0  0  0  0  0  0  0  0  0
   20.6071   17.7290   23.4630 C   0  0  0  0  0  0  0  0  0  0  0  0
   20.7559   18.1496   24.4660 H   0  0  0  0  0  0  0  0  0  0  0  0
   19.9768   16.8383   23.5924 H   0  0  0  0  0  0  0  0  0  0  0  0
   21.9898   17.3064   22.9095 C   0  0  0  0  0  0  0  0  0  0  0  0
   22.4861   16.6677   23.6536 H   0  0  0  0  0  0  0  0  0  0  0  0
   22.6295   18.1919   22.7902 H   0  0  0  0  0  0  0  0  0  0  0  0
   21.9101   16.5381   21.5705 C   0  0  0  0  0  0  0  0  0  0  0  0
   21.5369   17.1760   20.7599 H   0  0  0  0  0  0  0  0  0  0  0  0
   21.2493   15.6655   21.6543 H   0  0  0  0  0  0  0  0  0  0  0  0
   22.9041   16.1784   21.2746 H   0  0  0  0  0  0  0  0  0  0  0  0
   18.9097   22.2561   23.7598 C   0  0  0  0  0  0  0  0  0  0  0  0
   19.5593   23.1293   23.8516 H   0  0  0  0  0  0  0  0  0  0  0  0
   18.8544   21.9476   22.7139 H   0  0  0  0  0  0  0  0  0  0  0  0
   17.9107   22.4992   24.1282 H   0  0  0  0  0  0  0  0  0  0  0  0
  1  2  1  0  0  0  0
  1  3  1  0  0  0  0
  1  4  1  0  0  0  0
  4  5  1  0  0  0  0
  4  6  1  0  0  0  0
  4  7  1  0  0  0  0
  7  8  1  0  0  0  0
  7  9  1  0  0  0  0
  7 10  1  0  0  0  0
 10 11  1  0  0  0  0
 10 12  1  0  0  0  0
 10 13  1  0  0  0  0
 13 14  1  0  0  0  0
 13 15  1  0  0  0  0
 13 16  1  0  0  0  0
 16 17  1  0  0  0  0
 16 18  1  0  0  0  0
 16 19  1  0  0  0  0
 19 20  1  0  0  0  0
 19 21  1  0  0  0  0
 19 22  1  0  0  0  0
  1 23  1  0  0  0  0
 23 24  1  0  0  0  0
 23 25  1  0  0  0  0
 23 26  1  0  0  0  0
M  END
> <VConfSearch Rank>
359

> <Conf_Id>
84

> <Delta U+W>
1.456

> <U+W>
23.298

> <U>
73.042

> <W>
-49.744

> <W(PB)>
-51.966

> <W(SA)>
2.222

> <Valence>
2.938

> <Coulomb>
69.625

> <VdW>
0.478

> <VdW6>
-8.182

> <VdW12>
8.660

> <Bond>
0.253

> <Angle>
1.038

> <Pdih>
1.647

> <Idih>
0.000

> <Tether>
0.000

$$$$
VeraChem MOL file


 26 25  0  0  0  0  0  0  0  0999 V2000     
   21.8924   19.9031   24.4085 N   0  3  0  0  0  0  0  0  0  0  0  0
   21.0988   19.4247   24.8608 H   0  0  0  0  0  0  0  0  0  0  0  0
   21.9539   20.8276   24.8625 H   0  0  0  0  0  0  0  0  0  0  0  0
   21.6211   20.0672   22.9259 C   0  0  0  0  0  0  0  0  0  0  0  0
   21.5669   19.0708   22.4812 H   0  0  0  0  0  0  0  0  0  0  0  0
   22.4768   20.5877   22.4883 H   0  0  0  0  0  0  0  0  0  0  0  0
   20.3296   20.8500   22.6107 C   0  0  0  0  0  0  0  0  0  0  0  0
   20.4170   21.8666   23.0167 H   0  0  0  0  0  0  0  0  0  0  0  0
   20.2440   20.9625   21.5217 H   0  0  0  0  0  0  0  0  0  0  0  0
   19.0400   20.1881   23.1584 C   0  0  0  0  0  0  0  0  0  0  0  0
   18.1829   20.8232   22.8945 H   0  0  0  0  0  0  0  0  0  0  0  0
   19.0706   20.1601   24.2558 H   0  0  0  0  0  0  0  0  0  0  0  0
   18.8038   18.7621   22.6047 C   0  0  0  0  0  0  0  0  0  0  0  0
   18.7978   18.7915   21.5062 H   0  0  0  0  0  0  0  0  0  0  0  0
   19.6298   18.1016   22.9004 H   0  0  0  0  0  0  0  0  0  0  0  0
   17.4723   18.1632   23.1100 C   0  0  0  0  0  0  0  0  0  0  0  0
   16.6363   18.8109   22.8106 H   0  0  0  0  0  0  0  0  0  0  0  0
   17.4718   18.1332   24.2086 H   0  0  0  0  0  0  0  0  0  0  0  0
   17.2395   16.7401   22.5592 C   0  0  0  0  0  0  0  0  0  0  0  0
   17.2011   16.7427   21.4620 H   0  0  0  0  0  0  0  0  0  0  0  0
   16.2895   16.3322   22.9282 H   0  0  0  0  0  0  0  0  0  0  0  0
   18.0420   16.0594   22.8715 H   0  0  0  0  0  0  0  0  0  0  0  0
   23.1793   19.1172   24.6166 C   0  0  0  0  0  0  0  0  0  0  0  0
   24.0087   19.6581   24.1556 H   0  0  0  0  0  0  0  0  0  0  0  0
   23.3618   19.0057   25.6878 H   0  0  0  0  0  0  0  0  0  0  0  0
   23.0775   18.1326   24.1551 H   0  0  0  0  0  0  0  0  0  0  0  0
  1  2  1  0  0  0  0
  1  3  1  0  0  0  0
  1  4  1  0  0  0  0
  4  5  1  0  0  0  0
  4  6  1  0  0  0  0
  4  7  1  0  0  0  0
  7  8  1  0  0  0  0
  7  9  1  0  0  0  0
  7 10  1  0  0  0  0
 10 11  1  0  0  0  0
 10 12  1  0  0  0  0
 10 13  1  0  0  0  0
 13 14  1  0  0  0  0
 13 15  1  0  0  0  0
 13 16  1  0  0  0  0
 16 17  1  0  0  0  0
 16 18  1  0  0  0  0
 16 19  1  0  0  0  0
 19 20  1  0  0  0  0
 19 21  1  0  0  0  0
 19 22  1  0  0  0  0
  1 23  1  0  0  0  0
 23 24  1  0  0  0  0
 23 25  1  0  0  0  0
 23 26  1  0  0  0  0
M  END
> <VConfSearch Rank>
360

> <Conf_Id>
73

> <Delta U+W>
0.884

> <U+W>
22.726

> <U>
71.905

> <W>
-49.179

> <W(PB)>
-51.494

> <W(SA)>
2.315

> <Valence>
2.125

> <Coulomb>
69.686

> <VdW>
0.093

> <VdW6>
-6.766

> <VdW12>
6.859

> <Bond>
0.169

> <Angle>
0.621

> <Pdih>
1.336

> <Idih>
0.000

> <Tether>
0.000

$$$$
VeraChem MOL file


 26 25  0  0  0  0  0  0  0  0999 V2000     
   21.0062   21.7534   24.8310 N   0  3  0  0  0  0  0  0  0  0  0  0
   21.8546   21.9044   24.2633 H   0  0  0  0  0  0  0  0  0  0  0  0
   21.3292   21.2708   25.6840 H   0  0  0  0  0  0  0  0  0  0  0  0
   20.0214   20.8816   24.0781 C   0  0  0  0  0  0  0  0  0  0  0  0
   19.7116   21.4235   23.1809 H   0  0  0  0  0  0  0  0  0  0  0  0
   19.1444   20.7396   24.7147 H   0  0  0  0  0  0  0  0  0  0  0  0
   20.6007   19.5115   23.6814 C   0  0  0  0  0  0  0  0  0  0  0  0
   21.4911   19.6589   23.0557 H   0  0  0  0  0  0  0  0  0  0  0  0
   20.9257   18.9774   24.5843 H   0  0  0  0  0  0  0  0  0  0  0  0
   19.5633   18.6589   22.9176 C   0  0  0  0  0  0  0  0  0  0  0  0
   19.2366   19.1989   22.0180 H   0  0  0  0  0  0  0  0  0  0  0  0
   18.6718   18.5184   23.5447 H   0  0  0  0  0  0  0  0  0  0  0  0
   20.1340   17.2801   22.5142 C   0  0  0  0  0  0  0  0  0  0  0  0
   21.0254   17.4204   21.8870 H   0  0  0  0  0  0  0  0  0  0  0  0
   20.4606   16.7399   23.4136 H   0  0  0  0  0  0  0  0  0  0  0  0
   19.0962   16.4276   21.7503 C   0  0  0  0  0  0  0  0  0  0  0  0
   18.7680   16.9627   20.8481 H   0  0  0  0  0  0  0  0  0  0  0  0
   18.2034   16.2823   22.3746 H   0  0  0  0  0  0  0  0  0  0  0  0
   19.6696   15.0517   21.3491 C   0  0  0  0  0  0  0  0  0  0  0  0
   18.9186   14.4615   20.8082 H   0  0  0  0  0  0  0  0  0  0  0  0
   19.9753   14.4780   22.2337 H   0  0  0  0  0  0  0  0  0  0  0  0
   20.5444   15.1638   20.6953 H   0  0  0  0  0  0  0  0  0  0  0  0
   20.3559   23.0840   25.1839 C   0  0  0  0  0  0  0  0  0  0  0  0
   19.4810   22.9009   25.8115 H   0  0  0  0  0  0  0  0  0  0  0  0
   21.0756   23.7019   25.7255 H   0  0  0  0  0  0  0  0  0  0  0  0
   20.0528   23.5905   24.2649 H   0  0  0  0  0  0  0  0  0  0  0  0
  1  2  1  0  0  0  0
  1  3  1  0  0  0  0
  1  4  1  0  0  0  0
  4  5  1  0  0  0  0
  4  6  1  0  0  0  0
  4  7  1  0  0  0  0
  7  8  1  0  0  0  0
  7  9  1  0  0  0  0
  7 10  1  0  0  0  0
 10 11  1  0  0  0  0
 10 12  1  0  0  0  0
 10 13  1  0  0  0  0
 13 14  1  0  0  0  0
 13 15  1  0  0  0  0
 13 16  1  0  0  0  0
 16 17  1  0  0  0  0
 16 18  1  0  0  0  0
 16 19  1  0  0  0  0
 19 20  1  0  0  0  0
 19 21  1  0  0  0  0
 19 22  1  0  0  0  0
  1 23  1  0  0  0  0
 23 24  1  0  0  0  0
 23 25  1  0  0  0  0
 23 26  1  0  0  0  0
M  END
> <VConfSearch Rank>
361

> <Conf_Id>
11

> <Delta U+W>
0.000

> <U+W>
21.842

> <U>
70.357

> <W>
-48.515

> <W(PB)>
-50.856

> <W(SA)>
2.341

> <Valence>
1.714

> <Coulomb>
68.480

> <VdW>
0.163

> <VdW6>
-5.268

> <VdW12>
5.431

> <Bond>
0.126

> <Angle>
0.350

> <Pdih>
1.238

> <Idih>
0.000

> <Tether>
0.000

$$$$
VeraChem MOL file


 26 25  0  0  0  0  0  0  0  0999 V2000     
   17.1209   17.3345   22.8115 N   0  3  0  0  0  0  0  0  0  0  0  0
   16.1083   17.4764   22.9546 H   0  0  0  0  0  0  0  0  0  0  0  0
   17.3779   16.5770   23.4632 H   0  0  0  0  0  0  0  0  0  0  0  0
   17.8680   18.6092   23.1666 C   0  0  0  0  0  0  0  0  0  0  0  0
   17.5047   18.9367   24.1440 H   0  0  0  0  0  0  0  0  0  0  0  0
   17.5993   19.3725   22.4320 H   0  0  0  0  0  0  0  0  0  0  0  0
   19.4015   18.4567   23.2277 C   0  0  0  0  0  0  0  0  0  0  0  0
   19.6597   17.6540   23.9311 H   0  0  0  0  0  0  0  0  0  0  0  0
   19.7844   18.1581   22.2433 H   0  0  0  0  0  0  0  0  0  0  0  0
   20.0815   19.7722   23.6674 C   0  0  0  0  0  0  0  0  0  0  0  0
   19.6966   20.0722   24.6522 H   0  0  0  0  0  0  0  0  0  0  0  0
   19.8153   20.5743   22.9648 H   0  0  0  0  0  0  0  0  0  0  0  0
   21.6195   19.6327   23.7342 C   0  0  0  0  0  0  0  0  0  0  0  0
   21.8857   18.8306   24.4366 H   0  0  0  0  0  0  0  0  0  0  0  0
   22.0046   19.3331   22.7496 H   0  0  0  0  0  0  0  0  0  0  0  0
   22.2993   20.9486   24.1740 C   0  0  0  0  0  0  0  0  0  0  0  0
   21.9192   21.2513   25.1599 H   0  0  0  0  0  0  0  0  0  0  0  0
   22.0380   21.7538   23.4731 H   0  0  0  0  0  0  0  0  0  0  0  0
   23.8349   20.8054   24.2395 C   0  0  0  0  0  0  0  0  0  0  0  0
   24.2993   21.7493   24.5533 H   0  0  0  0  0  0  0  0  0  0  0  0
   24.2487   20.5364   23.2589 H   0  0  0  0  0  0  0  0  0  0  0  0
   24.1290   20.0301   24.9589 H   0  0  0  0  0  0  0  0  0  0  0  0
   17.3866   16.9217   21.3681 C   0  0  0  0  0  0  0  0  0  0  0  0
   18.4503   16.7105   21.2421 H   0  0  0  0  0  0  0  0  0  0  0  0
   16.8052   16.0256   21.1402 H   0  0  0  0  0  0  0  0  0  0  0  0
   17.0881   17.7341   20.7020 H   0  0  0  0  0  0  0  0  0  0  0  0
  1  2  1  0  0  0  0
  1  3  1  0  0  0  0
  1  4  1  0  0  0  0
  4  5  1  0  0  0  0
  4  6  1  0  0  0  0
  4  7  1  0  0  0  0
  7  8  1  0  0  0  0
  7  9  1  0  0  0  0
  7 10  1  0  0  0  0
 10 11  1  0  0  0  0
 10 12  1  0  0  0  0
 10 13  1  0  0  0  0
 13 14  1  0  0  0  0
 13 15  1  0  0  0  0
 13 16  1  0  0  0  0
 16 17  1  0  0  0  0
 16 18  1  0  0  0  0
 16 19  1  0  0  0  0
 19 20  1  0  0  0  0
 19 21  1  0  0  0  0
 19 22  1  0  0  0  0
  1 23  1  0  0  0  0
 23 24  1  0  0  0  0
 23 25  1  0  0  0  0
 23 26  1  0  0  0  0
M  END
> <VConfSearch Rank>
362

> <Conf_Id>
102

> <Delta U+W>
0.121

> <U+W>
21.963

> <U>
70.745

> <W>
-48.782

> <W(PB)>
-51.111

> <W(SA)>
2.329

> <Valence>
1.993

> <Coulomb>
68.323

> <VdW>
0.429

> <VdW6>
-5.973

> <VdW12>
6.402

> <Bond>
0.161

> <Angle>
0.472

> <Pdih>
1.360

> <Idih>
0.000

> <Tether>
0.000

$$$$
VeraChem MOL file


 26 25  0  0  0  0  0  0  0  0999 V2000     
   22.6625   16.9358   23.8968 N   0  3  0  0  0  0  0  0  0  0  0  0
   23.0765   17.0311   22.9565 H   0  0  0  0  0  0  0  0  0  0  0  0
   22.7968   15.9432   24.1473 H   0  0  0  0  0  0  0  0  0  0  0  0
   21.1769   17.2520   23.8513 C   0  0  0  0  0  0  0  0  0  0  0  0
   20.7858   17.1784   24.8691 H   0  0  0  0  0  0  0  0  0  0  0  0
   20.6985   16.4766   23.2475 H   0  0  0  0  0  0  0  0  0  0  0  0
   20.8341   18.6328   23.2561 C   0  0  0  0  0  0  0  0  0  0  0  0
   21.2825   19.4239   23.8710 H   0  0  0  0  0  0  0  0  0  0  0  0
   21.2733   18.7162   22.2532 H   0  0  0  0  0  0  0  0  0  0  0  0
   19.3065   18.8477   23.1744 C   0  0  0  0  0  0  0  0  0  0  0  0
   18.8700   18.7570   24.1789 H   0  0  0  0  0  0  0  0  0  0  0  0
   18.8574   18.0547   22.5602 H   0  0  0  0  0  0  0  0  0  0  0  0
   18.9489   20.2283   22.5781 C   0  0  0  0  0  0  0  0  0  0  0  0
   19.3976   21.0214   23.1922 H   0  0  0  0  0  0  0  0  0  0  0  0
   19.3856   20.3193   21.5738 H   0  0  0  0  0  0  0  0  0  0  0  0
   17.4211   20.4429   22.4964 C   0  0  0  0  0  0  0  0  0  0  0  0
   16.9797   20.3552   23.4991 H   0  0  0  0  0  0  0  0  0  0  0  0
   16.9677   19.6534   21.8807 H   0  0  0  0  0  0  0  0  0  0  0  0
   17.0679   21.8225   21.9007 C   0  0  0  0  0  0  0  0  0  0  0  0
   17.4789   22.6347   22.5145 H   0  0  0  0  0  0  0  0  0  0  0  0
   15.9795   21.9562   21.8508 H   0  0  0  0  0  0  0  0  0  0  0  0
   17.4669   21.9274   20.8834 H   0  0  0  0  0  0  0  0  0  0  0  0
   23.3866   17.8254   24.9011 C   0  0  0  0  0  0  0  0  0  0  0  0
   22.9396   17.6894   25.8883 H   0  0  0  0  0  0  0  0  0  0  0  0
   24.4415   17.5437   24.9321 H   0  0  0  0  0  0  0  0  0  0  0  0
   23.2945   18.8687   24.5928 H   0  0  0  0  0  0  0  0  0  0  0  0
  1  2  1  0  0  0  0
  1  3  1  0  0  0  0
  1  4  1  0  0  0  0
  4  5  1  0  0  0  0
  4  6  1  0  0  0  0
  4  7  1  0  0  0  0
  7  8  1  0  0  0  0
  7  9  1  0  0  0  0
  7 10  1  0  0  0  0
 10 11  1  0  0  0  0
 10 12  1  0  0  0  0
 10 13  1  0  0  0  0
 13 14  1  0  0  0  0
 13 15  1  0  0  0  0
 13 16  1  0  0  0  0
 16 17  1  0  0  0  0
 16 18  1  0  0  0  0
 16 19  1  0  0  0  0
 19 20  1  0  0  0  0
 19 21  1  0  0  0  0
 19 22  1  0  0  0  0
  1 23  1  0  0  0  0
 23 24  1  0  0  0  0
 23 25  1  0  0  0  0
 23 26  1  0  0  0  0
M  END
> <VConfSearch Rank>
363

> <Conf_Id>
37

> <Delta U+W>
0.125

> <U+W>
21.967

> <U>
70.745

> <W>
-48.778

> <W(PB)>
-51.115

> <W(SA)>
2.337

> <Valence>
1.993

> <Coulomb>
68.323

> <VdW>
0.429

> <VdW6>
-5.973

> <VdW12>
6.403

> <Bond>
0.161

> <Angle>
0.472

> <Pdih>
1.360

> <Idih>
0.000

> <Tether>
0.000

$$$$
VeraChem MOL file


 26 25  0  0  0  0  0  0  0  0999 V2000     
   17.1232   18.9642   24.1492 N   0  3  0  0  0  0  0  0  0  0  0  0
   16.8775   18.0109   24.4586 H   0  0  0  0  0  0  0  0  0  0  0  0
   16.7118   19.0618   23.2079 H   0  0  0  0  0  0  0  0  0  0  0  0
   18.6290   19.1199   24.0805 C   0  0  0  0  0  0  0  0  0  0  0  0
   19.0250   18.9994   25.0920 H   0  0  0  0  0  0  0  0  0  0  0  0
   18.8428   20.1374   23.7453 H   0  0  0  0  0  0  0  0  0  0  0  0
   19.3032   18.1059   23.1361 C   0  0  0  0  0  0  0  0  0  0  0  0
   19.0409   17.0891   23.4572 H   0  0  0  0  0  0  0  0  0  0  0  0
   18.9060   18.2267   22.1194 H   0  0  0  0  0  0  0  0  0  0  0  0
   20.8443   18.2415   23.1117 C   0  0  0  0  0  0  0  0  0  0  0  0
   21.2517   17.4190   22.5096 H   0  0  0  0  0  0  0  0  0  0  0  0
   21.2397   18.1089   24.1283 H   0  0  0  0  0  0  0  0  0  0  0  0
   21.3267   19.5970   22.5348 C   0  0  0  0  0  0  0  0  0  0  0  0
   20.9479   19.7198   21.5108 H   0  0  0  0  0  0  0  0  0  0  0  0
   20.8993   20.4198   23.1229 H   0  0  0  0  0  0  0  0  0  0  0  0
   22.8669   19.7544   22.5371 C   0  0  0  0  0  0  0  0  0  0  0  0
   23.2506   19.6438   23.5610 H   0  0  0  0  0  0  0  0  0  0  0  0
   23.1162   20.7783   22.2252 H   0  0  0  0  0  0  0  0  0  0  0  0
   23.5904   18.7603   21.6000 C   0  0  0  0  0  0  0  0  0  0  0  0
   23.4767   17.7249   21.9436 H   0  0  0  0  0  0  0  0  0  0  0  0
   24.6655   18.9789   21.5652 H   0  0  0  0  0  0  0  0  0  0  0  0
   23.2015   18.8282   20.5757 H   0  0  0  0  0  0  0  0  0  0  0  0
   16.5380   20.0011   25.0980 C   0  0  0  0  0  0  0  0  0  0  0  0
   16.7823   21.0009   24.7324 H   0  0  0  0  0  0  0  0  0  0  0  0
   15.4534   19.8779   25.1384 H   0  0  0  0  0  0  0  0  0  0  0  0
   16.9629   19.8570   26.0938 H   0  0  0  0  0  0  0  0  0  0  0  0
  1  2  1  0  0  0  0
  1  3  1  0  0  0  0
  1  4  1  0  0  0  0
  4  5  1  0  0  0  0
  4  6  1  0  0  0  0
  4  7  1  0  0  0  0
  7  8  1  0  0  0  0
  7  9  1  0  0  0  0
  7 10  1  0  0  0  0
 10 11  1  0  0  0  0
 10 12  1  0  0  0  0
 10 13  1  0  0  0  0
 13 14  1  0  0  0  0
 13 15  1  0  0  0  0
 13 16  1  0  0  0  0
 16 17  1  0  0  0  0
 16 18  1  0  0  0  0
 16 19  1  0  0  0  0
 19 20  1  0  0  0  0
 19 21  1  0  0  0  0
 19 22  1  0  0  0  0
  1 23  1  0  0  0  0
 23 24  1  0  0  0  0
 23 25  1  0  0  0  0
 23 26  1  0  0  0  0
M  END
> <VConfSearch Rank>
364

> <Conf_Id>
137

> <Delta U+W>
1.038

> <U+W>
22.880

> <U>
71.810

> <W>
-48.930

> <W(PB)>
-51.257

> <W(SA)>
2.327

> <Valence>
2.568

> <Coulomb>
68.877

> <VdW>
0.364

> <VdW6>
-6.470

> <VdW12>
6.834

> <Bond>
0.191

> <Angle>
0.752

> <Pdih>
1.626

> <Idih>
0.000

> <Tether>
0.000

$$$$
VeraChem MOL file


 26 25  0  0  0  0  0  0  0  0999 V2000     
   19.6262   17.4676   20.8270 N   0  3  0  0  0  0  0  0  0  0  0  0
   19.0458   16.8396   21.4045 H   0  0  0  0  0  0  0  0  0  0  0  0
   20.5660   17.0416   20.8174 H   0  0  0  0  0  0  0  0  0  0  0  0
   19.6839   18.8476   21.4510 C   0  0  0  0  0  0  0  0  0  0  0  0
   18.6713   19.2589   21.4494 H   0  0  0  0  0  0  0  0  0  0  0  0
   20.3121   19.4767   20.8154 H   0  0  0  0  0  0  0  0  0  0  0  0
   20.2391   18.8440   22.8869 C   0  0  0  0  0  0  0  0  0  0  0  0
   19.6118   18.1947   23.5104 H   0  0  0  0  0  0  0  0  0  0  0  0
   21.2500   18.4151   22.8858 H   0  0  0  0  0  0  0  0  0  0  0  0
   20.2802   20.2731   23.4778 C   0  0  0  0  0  0  0  0  0  0  0  0
   19.2622   20.6843   23.5246 H   0  0  0  0  0  0  0  0  0  0  0  0
   20.8441   20.9248   22.7958 H   0  0  0  0  0  0  0  0  0  0  0  0
   20.9346   20.3465   24.8796 C   0  0  0  0  0  0  0  0  0  0  0  0
   21.9589   19.9518   24.8293 H   0  0  0  0  0  0  0  0  0  0  0  0
   21.0262   21.4034   25.1658 H   0  0  0  0  0  0  0  0  0  0  0  0
   20.1397   19.5967   25.9751 C   0  0  0  0  0  0  0  0  0  0  0  0
   20.1031   18.5226   25.7497 H   0  0  0  0  0  0  0  0  0  0  0  0
   19.1009   19.9548   25.9908 H   0  0  0  0  0  0  0  0  0  0  0  0
   20.7694   19.7934   27.3708 C   0  0  0  0  0  0  0  0  0  0  0  0
   21.8004   19.4170   27.3952 H   0  0  0  0  0  0  0  0  0  0  0  0
   20.1954   19.2531   28.1347 H   0  0  0  0  0  0  0  0  0  0  0  0
   20.7862   20.8547   27.6509 H   0  0  0  0  0  0  0  0  0  0  0  0
   19.0679   17.5612   19.4137 C   0  0  0  0  0  0  0  0  0  0  0  0
   19.7161   18.2034   18.8133 H   0  0  0  0  0  0  0  0  0  0  0  0
   19.0317   16.5611   18.9759 H   0  0  0  0  0  0  0  0  0  0  0  0
   18.0614   17.9835   19.4523 H   0  0  0  0  0  0  0  0  0  0  0  0
  1  2  1  0  0  0  0
  1  3  1  0  0  0  0
  1  4  1  0  0  0  0
  4  5  1  0  0  0  0
  4  6  1  0  0  0  0
  4  7  1  0  0  0  0
  7  8  1  0  0  0  0
  7  9  1  0  0  0  0
  7 10  1  0  0  0  0
 10 11  1  0  0  0  0
 10 12  1  0  0  0  0
 10 13  1  0  0  0  0
 13 14  1  0  0  0  0
 13 15  1  0  0  0  0
 13 16  1  0  0  0  0
 16 17  1  0  0  0  0
 16 18  1  0  0  0  0
 16 19  1  0  0  0  0
 19 20  1  0  0  0  0
 19 21  1  0  0  0  0
 19 22  1  0  0  0  0
  1 23  1  0  0  0  0
 23 24  1  0  0  0  0
 23 25  1  0  0  0  0
 23 26  1  0  0  0  0
M  END
> <VConfSearch Rank>
365

> <Conf_Id>
35

> <Delta U+W>
0.670

> <U+W>
22.512

> <U>
71.348

> <W>
-48.837

> <W(PB)>
-51.150

> <W(SA)>
2.313

> <Valence>
2.262

> <Coulomb>
68.807

> <VdW>
0.280

> <VdW6>
-5.915

> <VdW12>
6.195

> <Bond>
0.164

> <Angle>
0.622

> <Pdih>
1.475

> <Idih>
0.000

> <Tether>
0.000

$$$$
VeraChem MOL file


 26 25  0  0  0  0  0  0  0  0999 V2000     
   21.5504   21.1509   24.7525 N   0  3  0  0  0  0  0  0  0  0  0  0
   21.1559   20.9245   25.6788 H   0  0  0  0  0  0  0  0  0  0  0  0
   20.9015   21.8379   24.3381 H   0  0  0  0  0  0  0  0  0  0  0  0
   21.6129   19.9049   23.8920 C   0  0  0  0  0  0  0  0  0  0  0  0
   22.3018   19.2029   24.3685 H   0  0  0  0  0  0  0  0  0  0  0  0
   22.0270   20.1884   22.9211 H   0  0  0  0  0  0  0  0  0  0  0  0
   20.2424   19.2322   23.6940 C   0  0  0  0  0  0  0  0  0  0  0  0
   19.8231   18.9640   24.6729 H   0  0  0  0  0  0  0  0  0  0  0  0
   19.5548   19.9521   23.2327 H   0  0  0  0  0  0  0  0  0  0  0  0
   20.3591   17.9661   22.8127 C   0  0  0  0  0  0  0  0  0  0  0  0
   21.1128   17.2960   23.2495 H   0  0  0  0  0  0  0  0  0  0  0  0
   20.7324   18.2411   21.8164 H   0  0  0  0  0  0  0  0  0  0  0  0
   19.0300   17.1837   22.6712 C   0  0  0  0  0  0  0  0  0  0  0  0
   19.2330   16.2476   22.1328 H   0  0  0  0  0  0  0  0  0  0  0  0
   18.6656   16.8931   23.6663 H   0  0  0  0  0  0  0  0  0  0  0  0
   17.9267   17.9662   21.9197 C   0  0  0  0  0  0  0  0  0  0  0  0
   18.3080   18.3020   20.9452 H   0  0  0  0  0  0  0  0  0  0  0  0
   17.6510   18.8683   22.4818 H   0  0  0  0  0  0  0  0  0  0  0  0
   16.6636   17.1051   21.7053 C   0  0  0  0  0  0  0  0  0  0  0  0
   16.8907   16.2114   21.1097 H   0  0  0  0  0  0  0  0  0  0  0  0
   15.8909   17.6759   21.1740 H   0  0  0  0  0  0  0  0  0  0  0  0
   16.2411   16.7784   22.6645 H   0  0  0  0  0  0  0  0  0  0  0  0
   22.9422   21.7509   24.8972 C   0  0  0  0  0  0  0  0  0  0  0  0
   23.3250   22.0127   23.9083 H   0  0  0  0  0  0  0  0  0  0  0  0
   22.8831   22.6471   25.5189 H   0  0  0  0  0  0  0  0  0  0  0  0
   23.6019   21.0185   25.3676 H   0  0  0  0  0  0  0  0  0  0  0  0
  1  2  1  0  0  0  0
  1  3  1  0  0  0  0
  1  4  1  0  0  0  0
  4  5  1  0  0  0  0
  4  6  1  0  0  0  0
  4  7  1  0  0  0  0
  7  8  1  0  0  0  0
  7  9  1  0  0  0  0
  7 10  1  0  0  0  0
 10 11  1  0  0  0  0
 10 12  1  0  0  0  0
 10 13  1  0  0  0  0
 13 14  1  0  0  0  0
 13 15  1  0  0  0  0
 13 16  1  0  0  0  0
 16 17  1  0  0  0  0
 16 18  1  0  0  0  0
 16 19  1  0  0  0  0
 19 20  1  0  0  0  0
 19 21  1  0  0  0  0
 19 22  1  0  0  0  0
  1 23  1  0  0  0  0
 23 24  1  0  0  0  0
 23 25  1  0  0  0  0
 23 26  1  0  0  0  0
M  END
> <VConfSearch Rank>
366

> <Conf_Id>
36

> <Delta U+W>
0.662

> <U+W>
22.504

> <U>
71.348

> <W>
-48.844

> <W(PB)>
-51.157

> <W(SA)>
2.313

> <Valence>
2.262

> <Coulomb>
68.807

> <VdW>
0.280

> <VdW6>
-5.916

> <VdW12>
6.195

> <Bond>
0.164

> <Angle>
0.622

> <Pdih>
1.475

> <Idih>
0.000

> <Tether>
0.000

$$$$
VeraChem MOL file


 26 25  0  0  0  0  0  0  0  0999 V2000     
   19.9507   16.3350   22.0841 N   0  3  0  0  0  0  0  0  0  0  0  0
   20.8940   16.3221   21.6660 H   0  0  0  0  0  0  0  0  0  0  0  0
   19.2986   16.2124   21.2938 H   0  0  0  0  0  0  0  0  0  0  0  0
   19.6997   17.6639   22.7678 C   0  0  0  0  0  0  0  0  0  0  0  0
   20.4122   17.7541   23.5911 H   0  0  0  0  0  0  0  0  0  0  0  0
   18.6903   17.6405   23.1861 H   0  0  0  0  0  0  0  0  0  0  0  0
   19.8404   18.8717   21.8214 C   0  0  0  0  0  0  0  0  0  0  0  0
   20.8542   18.8942   21.3997 H   0  0  0  0  0  0  0  0  0  0  0  0
   19.1509   18.7473   20.9758 H   0  0  0  0  0  0  0  0  0  0  0  0
   19.5385   20.2178   22.5214 C   0  0  0  0  0  0  0  0  0  0  0  0
   18.5139   20.2025   22.9183 H   0  0  0  0  0  0  0  0  0  0  0  0
   19.5684   21.0196   21.7706 H   0  0  0  0  0  0  0  0  0  0  0  0
   20.5345   20.5486   23.6591 C   0  0  0  0  0  0  0  0  0  0  0  0
   20.4797   19.7801   24.4417 H   0  0  0  0  0  0  0  0  0  0  0  0
   21.5605   20.5301   23.2660 H   0  0  0  0  0  0  0  0  0  0  0  0
   20.2500   21.9313   24.2872 C   0  0  0  0  0  0  0  0  0  0  0  0
   19.2244   21.9558   24.6814 H   0  0  0  0  0  0  0  0  0  0  0  0
   20.3107   22.7102   23.5141 H   0  0  0  0  0  0  0  0  0  0  0  0
   21.2429   22.2594   25.4227 C   0  0  0  0  0  0  0  0  0  0  0  0
   21.1808   21.5166   26.2287 H   0  0  0  0  0  0  0  0  0  0  0  0
   21.0252   23.2445   25.8554 H   0  0  0  0  0  0  0  0  0  0  0  0
   22.2760   22.2756   25.0517 H   0  0  0  0  0  0  0  0  0  0  0  0
   19.7950   15.1994   23.0861 C   0  0  0  0  0  0  0  0  0  0  0  0
   18.7802   15.2133   23.4898 H   0  0  0  0  0  0  0  0  0  0  0  0
   19.9780   14.2484   22.5810 H   0  0  0  0  0  0  0  0  0  0  0  0
   20.5169   15.3324   23.8948 H   0  0  0  0  0  0  0  0  0  0  0  0
  1  2  1  0  0  0  0
  1  3  1  0  0  0  0
  1  4  1  0  0  0  0
  4  5  1  0  0  0  0
  4  6  1  0  0  0  0
  4  7  1  0  0  0  0
  7  8  1  0  0  0  0
  7  9  1  0  0  0  0
  7 10  1  0  0  0  0
 10 11  1  0  0  0  0
 10 12  1  0  0  0  0
 10 13  1  0  0  0  0
 13 14  1  0  0  0  0
 13 15  1  0  0  0  0
 13 16  1  0  0  0  0
 16 17  1  0  0  0  0
 16 18  1  0  0  0  0
 16 19  1  0  0  0  0
 19 20  1  0  0  0  0
 19 21  1  0  0  0  0
 19 22  1  0  0  0  0
  1 23  1  0  0  0  0
 23 24  1  0  0  0  0
 23 25  1  0  0  0  0
 23 26  1  0  0  0  0
M  END
> <VConfSearch Rank>
367

> <Conf_Id>
46

> <Delta U+W>
0.496

> <U+W>
22.338

> <U>
71.138

> <W>
-48.799

> <W(PB)>
-51.136

> <W(SA)>
2.337

> <Valence>
2.016

> <Coulomb>
68.932

> <VdW>
0.190

> <VdW6>
-5.902

> <VdW12>
6.092

> <Bond>
0.149

> <Angle>
0.477

> <Pdih>
1.390

> <Idih>
0.000

> <Tether>
0.000

$$$$
VeraChem MOL file


 26 25  0  0  0  0  0  0  0  0999 V2000     
   17.6431   18.0127   24.8965 N   0  3  0  0  0  0  0  0  0  0  0  0
   17.8715   17.3765   25.6762 H   0  0  0  0  0  0  0  0  0  0  0  0
   17.2495   17.4102   24.1570 H   0  0  0  0  0  0  0  0  0  0  0  0
   18.8980   18.7005   24.3980 C   0  0  0  0  0  0  0  0  0  0  0  0
   19.2877   19.3177   25.2114 H   0  0  0  0  0  0  0  0  0  0  0  0
   18.6119   19.3574   23.5732 H   0  0  0  0  0  0  0  0  0  0  0  0
   19.9860   17.7160   23.9276 C   0  0  0  0  0  0  0  0  0  0  0  0
   20.2329   17.0335   24.7517 H   0  0  0  0  0  0  0  0  0  0  0  0
   19.5938   17.0946   23.1115 H   0  0  0  0  0  0  0  0  0  0  0  0
   21.2774   18.4299   23.4629 C   0  0  0  0  0  0  0  0  0  0  0  0
   22.0358   17.6695   23.2303 H   0  0  0  0  0  0  0  0  0  0  0  0
   21.6825   19.0292   24.2901 H   0  0  0  0  0  0  0  0  0  0  0  0
   21.0620   19.3301   22.2223 C   0  0  0  0  0  0  0  0  0  0  0  0
   20.6258   18.7350   21.4080 H   0  0  0  0  0  0  0  0  0  0  0  0
   20.3420   20.1258   22.4558 H   0  0  0  0  0  0  0  0  0  0  0  0
   22.3836   19.9691   21.7404 C   0  0  0  0  0  0  0  0  0  0  0  0
   23.1096   19.1813   21.4952 H   0  0  0  0  0  0  0  0  0  0  0  0
   22.8249   20.5651   22.5515 H   0  0  0  0  0  0  0  0  0  0  0  0
   22.1674   20.8679   20.5041 C   0  0  0  0  0  0  0  0  0  0  0  0
   21.7577   20.2921   19.6640 H   0  0  0  0  0  0  0  0  0  0  0  0
   23.1165   21.3119   20.1768 H   0  0  0  0  0  0  0  0  0  0  0  0
   21.4720   21.6874   20.7282 H   0  0  0  0  0  0  0  0  0  0  0  0
   16.6226   19.0529   25.3373 C   0  0  0  0  0  0  0  0  0  0  0  0
   15.7241   18.5445   25.6941 H   0  0  0  0  0  0  0  0  0  0  0  0
   17.0491   19.6560   26.1419 H   0  0  0  0  0  0  0  0  0  0  0  0
   16.3718   19.6925   24.4882 H   0  0  0  0  0  0  0  0  0  0  0  0
  1  2  1  0  0  0  0
  1  3  1  0  0  0  0
  1  4  1  0  0  0  0
  4  5  1  0  0  0  0
  4  6  1  0  0  0  0
  4  7  1  0  0  0  0
  7  8  1  0  0  0  0
  7  9  1  0  0  0  0
  7 10  1  0  0  0  0
 10 11  1  0  0  0  0
 10 12  1  0  0  0  0
 10 13  1  0  0  0  0
 13 14  1  0  0  0  0
 13 15  1  0  0  0  0
 13 16  1  0  0  0  0
 16 17  1  0  0  0  0
 16 18  1  0  0  0  0
 16 19  1  0  0  0  0
 19 20  1  0  0  0  0
 19 21  1  0  0  0  0
 19 22  1  0  0  0  0
  1 23  1  0  0  0  0
 23 24  1  0  0  0  0
 23 25  1  0  0  0  0
 23 26  1  0  0  0  0
M  END
> <VConfSearch Rank>
368

> <Conf_Id>
45

> <Delta U+W>
0.471

> <U+W>
22.313

> <U>
71.138

> <W>
-48.825

> <W(PB)>
-51.169

> <W(SA)>
2.344

> <Valence>
2.016

> <Coulomb>
68.932

> <VdW>
0.190

> <VdW6>
-5.902

> <VdW12>
6.092

> <Bond>
0.149

> <Angle>
0.477

> <Pdih>
1.390

> <Idih>
0.000

> <Tether>
0.000

$$$$
VeraChem MOL file


 26 25  0  0  0  0  0  0  0  0999 V2000     
   20.7719   20.7746   25.1419 N   0  3  0  0  0  0  0  0  0  0  0  0
   21.6289   20.3491   24.7578 H   0  0  0  0  0  0  0  0  0  0  0  0
   20.3972   20.0855   25.8122 H   0  0  0  0  0  0  0  0  0  0  0  0
   19.7695   21.0201   24.0307 C   0  0  0  0  0  0  0  0  0  0  0  0
   20.2043   21.7454   23.3384 H   0  0  0  0  0  0  0  0  0  0  0  0
   18.8806   21.4689   24.4813 H   0  0  0  0  0  0  0  0  0  0  0  0
   19.3655   19.7468   23.2617 C   0  0  0  0  0  0  0  0  0  0  0  0
   18.9289   19.0265   23.9648 H   0  0  0  0  0  0  0  0  0  0  0  0
   18.5738   20.0095   22.5475 H   0  0  0  0  0  0  0  0  0  0  0  0
   20.5544   19.1098   22.4992 C   0  0  0  0  0  0  0  0  0  0  0  0
   21.3153   18.7603   23.2098 H   0  0  0  0  0  0  0  0  0  0  0  0
   21.0373   19.8811   21.8831 H   0  0  0  0  0  0  0  0  0  0  0  0
   20.1388   17.9360   21.5786 C   0  0  0  0  0  0  0  0  0  0  0  0
   19.3950   18.2850   20.8490 H   0  0  0  0  0  0  0  0  0  0  0  0
   21.0164   17.6221   20.9966 H   0  0  0  0  0  0  0  0  0  0  0  0
   19.5820   16.7140   22.3472 C   0  0  0  0  0  0  0  0  0  0  0  0
   18.6593   16.9867   22.8764 H   0  0  0  0  0  0  0  0  0  0  0  0
   20.3049   16.3947   23.1109 H   0  0  0  0  0  0  0  0  0  0  0  0
   19.2845   15.5324   21.3994 C   0  0  0  0  0  0  0  0  0  0  0  0
   18.5412   15.8119   20.6414 H   0  0  0  0  0  0  0  0  0  0  0  0
   18.8881   14.6759   21.9600 H   0  0  0  0  0  0  0  0  0  0  0  0
   20.1942   15.2028   20.8807 H   0  0  0  0  0  0  0  0  0  0  0  0
   21.0960   22.0846   25.8465 C   0  0  0  0  0  0  0  0  0  0  0  0
   20.1796   22.5000   26.2714 H   0  0  0  0  0  0  0  0  0  0  0  0
   21.8186   21.8937   26.6431 H   0  0  0  0  0  0  0  0  0  0  0  0
   21.5199   22.7856   25.1241 H   0  0  0  0  0  0  0  0  0  0  0  0
  1  2  1  0  0  0  0
  1  3  1  0  0  0  0
  1  4  1  0  0  0  0
  4  5  1  0  0  0  0
  4  6  1  0  0  0  0
  4  7  1  0  0  0  0
  7  8  1  0  0  0  0
  7  9  1  0  0  0  0
  7 10  1  0  0  0  0
 10 11  1  0  0  0  0
 10 12  1  0  0  0  0
 10 13  1  0  0  0  0
 13 14  1  0  0  0  0
 13 15  1  0  0  0  0
 13 16  1  0  0  0  0
 16 17  1  0  0  0  0
 16 18  1  0  0  0  0
 16 19  1  0  0  0  0
 19 20  1  0  0  0  0
 19 21  1  0  0  0  0
 19 22  1  0  0  0  0
  1 23  1  0  0  0  0
 23 24  1  0  0  0  0
 23 25  1  0  0  0  0
 23 26  1  0  0  0  0
M  END
> <VConfSearch Rank>
369

> <Conf_Id>
143

> <Delta U+W>
0.915

> <U+W>
22.757

> <U>
71.994

> <W>
-49.237

> <W(PB)>
-51.537

> <W(SA)>
2.300

> <Valence>
2.376

> <Coulomb>
69.315

> <VdW>
0.303

> <VdW6>
-6.508

> <VdW12>
6.810

> <Bond>
0.182

> <Angle>
0.660

> <Pdih>
1.534

> <Idih>
0.000

> <Tether>
0.000

$$$$
VeraChem MOL file


 26 25  0  0  0  0  0  0  0  0999 V2000     
   21.2913   21.2931   23.6997 N   0  3  0  0  0  0  0  0  0  0  0  0
   21.1197   21.3545   22.6849 H   0  0  0  0  0  0  0  0  0  0  0  0
   22.2018   20.8177   23.7978 H   0  0  0  0  0  0  0  0  0  0  0  0
   20.2013   20.4747   24.3648 C   0  0  0  0  0  0  0  0  0  0  0  0
   19.2535   21.0025   24.2322 H   0  0  0  0  0  0  0  0  0  0  0  0
   20.4247   20.4386   25.4341 H   0  0  0  0  0  0  0  0  0  0  0  0
   20.0754   19.0374   23.8220 C   0  0  0  0  0  0  0  0  0  0  0  0
   21.0373   18.5187   23.9286 H   0  0  0  0  0  0  0  0  0  0  0  0
   19.3527   18.5042   24.4516 H   0  0  0  0  0  0  0  0  0  0  0  0
   19.6044   18.9933   22.3477 C   0  0  0  0  0  0  0  0  0  0  0  0
   20.2684   19.6144   21.7324 H   0  0  0  0  0  0  0  0  0  0  0  0
   18.6059   19.4457   22.2713 H   0  0  0  0  0  0  0  0  0  0  0  0
   19.5737   17.5717   21.7285 C   0  0  0  0  0  0  0  0  0  0  0  0
   19.2688   17.6761   20.6779 H   0  0  0  0  0  0  0  0  0  0  0  0
   20.5878   17.1499   21.7003 H   0  0  0  0  0  0  0  0  0  0  0  0
   18.5994   16.5805   22.4163 C   0  0  0  0  0  0  0  0  0  0  0  0
   18.1608   15.9300   21.6466 H   0  0  0  0  0  0  0  0  0  0  0  0
   17.7571   17.1230   22.8677 H   0  0  0  0  0  0  0  0  0  0  0  0
   19.2840   15.6769   23.4687 C   0  0  0  0  0  0  0  0  0  0  0  0
   19.7297   16.2566   24.2844 H   0  0  0  0  0  0  0  0  0  0  0  0
   20.0788   15.0744   23.0100 H   0  0  0  0  0  0  0  0  0  0  0  0
   18.5565   14.9847   23.9120 H   0  0  0  0  0  0  0  0  0  0  0  0
   21.3448   22.6838   24.3166 C   0  0  0  0  0  0  0  0  0  0  0  0
   21.5591   22.5951   25.3840 H   0  0  0  0  0  0  0  0  0  0  0  0
   22.1328   23.2620   23.8290 H   0  0  0  0  0  0  0  0  0  0  0  0
   20.3815   23.1779   24.1724 H   0  0  0  0  0  0  0  0  0  0  0  0
  1  2  1  0  0  0  0
  1  3  1  0  0  0  0
  1  4  1  0  0  0  0
  4  5  1  0  0  0  0
  4  6  1  0  0  0  0
  4  7  1  0  0  0  0
  7  8  1  0  0  0  0
  7  9  1  0  0  0  0
  7 10  1  0  0  0  0
 10 11  1  0  0  0  0
 10 12  1  0  0  0  0
 10 13  1  0  0  0  0
 13 14  1  0  0  0  0
 13 15  1  0  0  0  0
 13 16  1  0  0  0  0
 16 17  1  0  0  0  0
 16 18  1  0  0  0  0
 16 19  1  0  0  0  0
 19 20  1  0  0  0  0
 19 21  1  0  0  0  0
 19 22  1  0  0  0  0
  1 23  1  0  0  0  0
 23 24  1  0  0  0  0
 23 25  1  0  0  0  0
 23 26  1  0  0  0  0
M  END
> <VConfSearch Rank>
370

> <Conf_Id>
76

> <Delta U+W>
3.468

> <U+W>
25.310

> <U>
74.594

> <W>
-49.283

> <W(PB)>
-51.537

> <W(SA)>
2.253

> <Valence>
4.886

> <Coulomb>
69.332

> <VdW>
0.376

> <VdW6>
-7.329

> <VdW12>
7.705

> <Bond>
0.232

> <Angle>
1.251

> <Pdih>
3.403

> <Idih>
0.000

> <Tether>
0.000

$$$$
VeraChem MOL file


 26 25  0  0  0  0  0  0  0  0999 V2000     
   19.6731   17.0090   25.1393 N   0  3  0  0  0  0  0  0  0  0  0  0
   18.9426   17.6310   25.5191 H   0  0  0  0  0  0  0  0  0  0  0  0
   20.4780   17.1092   25.7771 H   0  0  0  0  0  0  0  0  0  0  0  0
   20.0572   17.4463   23.7399 C   0  0  0  0  0  0  0  0  0  0  0  0
   19.1785   17.3322   23.1000 H   0  0  0  0  0  0  0  0  0  0  0  0
   20.8360   16.7697   23.3792 H   0  0  0  0  0  0  0  0  0  0  0  0
   20.5613   18.8993   23.6726 C   0  0  0  0  0  0  0  0  0  0  0  0
   19.7846   19.5681   24.0597 H   0  0  0  0  0  0  0  0  0  0  0  0
   21.4334   19.0111   24.3304 H   0  0  0  0  0  0  0  0  0  0  0  0
   20.9503   19.2937   22.2274 C   0  0  0  0  0  0  0  0  0  0  0  0
   20.1044   19.1316   21.5450 H   0  0  0  0  0  0  0  0  0  0  0  0
   21.7456   18.6139   21.8909 H   0  0  0  0  0  0  0  0  0  0  0  0
   21.4650   20.7516   22.1006 C   0  0  0  0  0  0  0  0  0  0  0  0
   21.9554   21.0659   23.0323 H   0  0  0  0  0  0  0  0  0  0  0  0
   22.2506   20.7712   21.3326 H   0  0  0  0  0  0  0  0  0  0  0  0
   20.3872   21.7876   21.6900 C   0  0  0  0  0  0  0  0  0  0  0  0
   19.9765   21.5218   20.7059 H   0  0  0  0  0  0  0  0  0  0  0  0
   20.8744   22.7643   21.5616 H   0  0  0  0  0  0  0  0  0  0  0  0
   19.2312   21.9410   22.7027 C   0  0  0  0  0  0  0  0  0  0  0  0
   19.6122   22.1414   23.7124 H   0  0  0  0  0  0  0  0  0  0  0  0
   18.6076   21.0393   22.7355 H   0  0  0  0  0  0  0  0  0  0  0  0
   18.5806   22.7778   22.4176 H   0  0  0  0  0  0  0  0  0  0  0  0
   19.1867   15.5666   25.1159 C   0  0  0  0  0  0  0  0  0  0  0  0
   18.3155   15.4918   24.4613 H   0  0  0  0  0  0  0  0  0  0  0  0
   19.9867   14.9238   24.7422 H   0  0  0  0  0  0  0  0  0  0  0  0
   18.9135   15.2642   26.1294 H   0  0  0  0  0  0  0  0  0  0  0  0
  1  2  1  0  0  0  0
  1  3  1  0  0  0  0
  1  4  1  0  0  0  0
  4  5  1  0  0  0  0
  4  6  1  0  0  0  0
  4  7  1  0  0  0  0
  7  8  1  0  0  0  0
  7  9  1  0  0  0  0
  7 10  1  0  0  0  0
 10 11  1  0  0  0  0
 10 12  1  0  0  0  0
 10 13  1  0  0  0  0
 13 14  1  0  0  0  0
 13 15  1  0  0  0  0
 13 16  1  0  0  0  0
 16 17  1  0  0  0  0
 16 18  1  0  0  0  0
 16 19  1  0  0  0  0
 19 20  1  0  0  0  0
 19 21  1  0  0  0  0
 19 22  1  0  0  0  0
  1 23  1  0  0  0  0
 23 24  1  0  0  0  0
 23 25  1  0  0  0  0
 23 26  1  0  0  0  0
M  END
> <VConfSearch Rank>
371

> <Conf_Id>
123

> <Delta U+W>
3.101

> <U+W>
24.943

> <U>
74.070

> <W>
-49.127

> <W(PB)>
-51.421

> <W(SA)>
2.295

> <Valence>
4.690

> <Coulomb>
69.115

> <VdW>
0.266

> <VdW6>
-6.809

> <VdW12>
7.075

> <Bond>
0.212

> <Angle>
1.133

> <Pdih>
3.345

> <Idih>
0.000

> <Tether>
0.000

$$$$
VeraChem MOL file


 26 25  0  0  0  0  0  0  0  0999 V2000     
   20.7783   16.8498   24.5031 N   0  3  0  0  0  0  0  0  0  0  0  0
   21.1424   16.2797   23.7239 H   0  0  0  0  0  0  0  0  0  0  0  0
   19.7513   16.7941   24.4300 H   0  0  0  0  0  0  0  0  0  0  0  0
   21.2338   18.2886   24.3541 C   0  0  0  0  0  0  0  0  0  0  0  0
   22.3234   18.2994   24.4386 H   0  0  0  0  0  0  0  0  0  0  0  0
   20.8213   18.8611   25.1887 H   0  0  0  0  0  0  0  0  0  0  0  0
   20.8186   18.9428   23.0215 C   0  0  0  0  0  0  0  0  0  0  0  0
   21.2863   19.9321   22.9658 H   0  0  0  0  0  0  0  0  0  0  0  0
   21.2301   18.3610   22.1861 H   0  0  0  0  0  0  0  0  0  0  0  0
   19.2807   19.0667   22.8706 C   0  0  0  0  0  0  0  0  0  0  0  0
   18.8487   19.5633   23.7504 H   0  0  0  0  0  0  0  0  0  0  0  0
   18.8493   18.0571   22.8483 H   0  0  0  0  0  0  0  0  0  0  0  0
   18.8471   19.8055   21.5774 C   0  0  0  0  0  0  0  0  0  0  0  0
   19.5920   19.6555   20.7838 H   0  0  0  0  0  0  0  0  0  0  0  0
   17.9243   19.3368   21.2083 H   0  0  0  0  0  0  0  0  0  0  0  0
   18.5598   21.3180   21.7601 C   0  0  0  0  0  0  0  0  0  0  0  0
   17.7412   21.4529   22.4809 H   0  0  0  0  0  0  0  0  0  0  0  0
   18.1930   21.7209   20.8057 H   0  0  0  0  0  0  0  0  0  0  0  0
   19.7812   22.1489   22.2111 C   0  0  0  0  0  0  0  0  0  0  0  0
   20.6371   21.9907   21.5424 H   0  0  0  0  0  0  0  0  0  0  0  0
   20.0831   21.8916   23.2338 H   0  0  0  0  0  0  0  0  0  0  0  0
   19.5411   23.2199   22.2007 H   0  0  0  0  0  0  0  0  0  0  0  0
   21.2491   16.2926   25.8392 C   0  0  0  0  0  0  0  0  0  0  0  0
   20.8256   16.8925   26.6478 H   0  0  0  0  0  0  0  0  0  0  0  0
   20.9143   15.2572   25.9337 H   0  0  0  0  0  0  0  0  0  0  0  0
   22.3398   16.3328   25.8807 H   0  0  0  0  0  0  0  0  0  0  0  0
  1  2  1  0  0  0  0
  1  3  1  0  0  0  0
  1  4  1  0  0  0  0
  4  5  1  0  0  0  0
  4  6  1  0  0  0  0
  4  7  1  0  0  0  0
  7  8  1  0  0  0  0
  7  9  1  0  0  0  0
  7 10  1  0  0  0  0
 10 11  1  0  0  0  0
 10 12  1  0  0  0  0
 10 13  1  0  0  0  0
 13 14  1  0  0  0  0
 13 15  1  0  0  0  0
 13 16  1  0  0  0  0
 16 17  1  0  0  0  0
 16 18  1  0  0  0  0
 16 19  1  0  0  0  0
 19 20  1  0  0  0  0
 19 21  1  0  0  0  0
 19 22  1  0  0  0  0
  1 23  1  0  0  0  0
 23 24  1  0  0  0  0
 23 25  1  0  0  0  0
 23 26  1  0  0  0  0
M  END
> <VConfSearch Rank>
372

> <Conf_Id>
111

> <Delta U+W>
3.383

> <U+W>
25.225

> <U>
74.516

> <W>
-49.292

> <W(PB)>
-51.558

> <W(SA)>
2.266

> <Valence>
4.842

> <Coulomb>
69.333

> <VdW>
0.342

> <VdW6>
-7.369

> <VdW12>
7.711

> <Bond>
0.232

> <Angle>
1.153

> <Pdih>
3.457

> <Idih>
0.000

> <Tether>
0.000

$$$$
VeraChem MOL file


 26 25  0  0  0  0  0  0  0  0999 V2000     
   19.1693   16.8956   22.9971 N   0  3  0  0  0  0  0  0  0  0  0  0
   18.1548   16.7954   23.1565 H   0  0  0  0  0  0  0  0  0  0  0  0
   19.5549   17.2545   23.8835 H   0  0  0  0  0  0  0  0  0  0  0  0
   19.4261   17.8892   21.8811 C   0  0  0  0  0  0  0  0  0  0  0  0
   18.9934   17.4779   20.9656 H   0  0  0  0  0  0  0  0  0  0  0  0
   20.5068   17.9654   21.7402 H   0  0  0  0  0  0  0  0  0  0  0  0
   18.8334   19.2894   22.1431 C   0  0  0  0  0  0  0  0  0  0  0  0
   19.0268   19.9225   21.2670 H   0  0  0  0  0  0  0  0  0  0  0  0
   17.7414   19.2066   22.2245 H   0  0  0  0  0  0  0  0  0  0  0  0
   19.3893   19.9876   23.4102 C   0  0  0  0  0  0  0  0  0  0  0  0
   19.1257   19.4070   24.3041 H   0  0  0  0  0  0  0  0  0  0  0  0
   18.8818   20.9553   23.5148 H   0  0  0  0  0  0  0  0  0  0  0  0
   20.9228   20.2092   23.3621 C   0  0  0  0  0  0  0  0  0  0  0  0
   21.4307   19.2443   23.2338 H   0  0  0  0  0  0  0  0  0  0  0  0
   21.1821   20.8141   22.4823 H   0  0  0  0  0  0  0  0  0  0  0  0
   21.4882   20.8830   24.6361 C   0  0  0  0  0  0  0  0  0  0  0  0
   22.5851   20.8964   24.5694 H   0  0  0  0  0  0  0  0  0  0  0  0
   21.2423   20.2761   25.5187 H   0  0  0  0  0  0  0  0  0  0  0  0
   20.9864   22.3303   24.8436 C   0  0  0  0  0  0  0  0  0  0  0  0
   19.9081   22.3598   25.0426 H   0  0  0  0  0  0  0  0  0  0  0  0
   21.1909   22.9499   23.9609 H   0  0  0  0  0  0  0  0  0  0  0  0
   21.4916   22.7924   25.7016 H   0  0  0  0  0  0  0  0  0  0  0  0
   19.7923   15.5512   22.6485 C   0  0  0  0  0  0  0  0  0  0  0  0
   19.6008   14.8462   23.4605 H   0  0  0  0  0  0  0  0  0  0  0  0
   19.3468   15.1782   21.7236 H   0  0  0  0  0  0  0  0  0  0  0  0
   20.8690   15.6778   22.5160 H   0  0  0  0  0  0  0  0  0  0  0  0
  1  2  1  0  0  0  0
  1  3  1  0  0  0  0
  1  4  1  0  0  0  0
  4  5  1  0  0  0  0
  4  6  1  0  0  0  0
  4  7  1  0  0  0  0
  7  8  1  0  0  0  0
  7  9  1  0  0  0  0
  7 10  1  0  0  0  0
 10 11  1  0  0  0  0
 10 12  1  0  0  0  0
 10 13  1  0  0  0  0
 13 14  1  0  0  0  0
 13 15  1  0  0  0  0
 13 16  1  0  0  0  0
 16 17  1  0  0  0  0
 16 18  1  0  0  0  0
 16 19  1  0  0  0  0
 19 20  1  0  0  0  0
 19 21  1  0  0  0  0
 19 22  1  0  0  0  0
  1 23  1  0  0  0  0
 23 24  1  0  0  0  0
 23 25  1  0  0  0  0
 23 26  1  0  0  0  0
M  END
> <VConfSearch Rank>
373

> <Conf_Id>
126

> <Delta U+W>
1.519

> <U+W>
23.361

> <U>
72.579

> <W>
-49.218

> <W(PB)>
-51.496

> <W(SA)>
2.279

> <Valence>
2.678

> <Coulomb>
69.622

> <VdW>
0.279

> <VdW6>
-7.328

> <VdW12>
7.608

> <Bond>
0.212

> <Angle>
0.911

> <Pdih>
1.555

> <Idih>
0.000

> <Tether>
0.000

$$$$
VeraChem MOL file


 26 25  0  0  0  0  0  0  0  0999 V2000     
   19.6044   17.7772   21.3420 N   0  3  0  0  0  0  0  0  0  0  0  0
   20.5494   18.0837   21.6180 H   0  0  0  0  0  0  0  0  0  0  0  0
   19.3813   18.3051   20.4840 H   0  0  0  0  0  0  0  0  0  0  0  0
   18.6105   18.1156   22.4357 C   0  0  0  0  0  0  0  0  0  0  0  0
   18.8766   17.5371   23.3233 H   0  0  0  0  0  0  0  0  0  0  0  0
   17.6239   17.7861   22.1000 H   0  0  0  0  0  0  0  0  0  0  0  0
   18.5563   19.6169   22.7874 C   0  0  0  0  0  0  0  0  0  0  0  0
   18.2311   20.1805   21.9029 H   0  0  0  0  0  0  0  0  0  0  0  0
   17.7811   19.7716   23.5497 H   0  0  0  0  0  0  0  0  0  0  0  0
   19.8987   20.1982   23.2994 C   0  0  0  0  0  0  0  0  0  0  0  0
   19.7541   21.2696   23.4895 H   0  0  0  0  0  0  0  0  0  0  0  0
   20.6614   20.1285   22.5126 H   0  0  0  0  0  0  0  0  0  0  0  0
   20.4109   19.5075   24.5891 C   0  0  0  0  0  0  0  0  0  0  0  0
   19.6583   19.6027   25.3839 H   0  0  0  0  0  0  0  0  0  0  0  0
   20.5333   18.4317   24.4073 H   0  0  0  0  0  0  0  0  0  0  0  0
   21.7647   20.0660   25.0911 C   0  0  0  0  0  0  0  0  0  0  0  0
   22.5250   19.9624   24.3043 H   0  0  0  0  0  0  0  0  0  0  0  0
   22.1090   19.4492   25.9331 H   0  0  0  0  0  0  0  0  0  0  0  0
   21.6916   21.5394   25.5531 C   0  0  0  0  0  0  0  0  0  0  0  0
   20.9151   21.6760   26.3169 H   0  0  0  0  0  0  0  0  0  0  0  0
   21.4745   22.2151   24.7167 H   0  0  0  0  0  0  0  0  0  0  0  0
   22.6490   21.8529   25.9889 H   0  0  0  0  0  0  0  0  0  0  0  0
   19.5864   16.2796   21.0697 C   0  0  0  0  0  0  0  0  0  0  0  0
   19.8562   15.7452   21.9832 H   0  0  0  0  0  0  0  0  0  0  0  0
   18.5844   15.9848   20.7506 H   0  0  0  0  0  0  0  0  0  0  0  0
   20.3070   16.0501   20.2815 H   0  0  0  0  0  0  0  0  0  0  0  0
  1  2  1  0  0  0  0
  1  3  1  0  0  0  0
  1  4  1  0  0  0  0
  4  5  1  0  0  0  0
  4  6  1  0  0  0  0
  4  7  1  0  0  0  0
  7  8  1  0  0  0  0
  7  9  1  0  0  0  0
  7 10  1  0  0  0  0
 10 11  1  0  0  0  0
 10 12  1  0  0  0  0
 10 13  1  0  0  0  0
 13 14  1  0  0  0  0
 13 15  1  0  0  0  0
 13 16  1  0  0  0  0
 16 17  1  0  0  0  0
 16 18  1  0  0  0  0
 16 19  1  0  0  0  0
 19 20  1  0  0  0  0
 19 21  1  0  0  0  0
 19 22  1  0  0  0  0
  1 23  1  0  0  0  0
 23 24  1  0  0  0  0
 23 25  1  0  0  0  0
 23 26  1  0  0  0  0
M  END
> <VConfSearch Rank>
374

> <Conf_Id>
134

> <Delta U+W>
1.464

> <U+W>
23.306

> <U>
72.579

> <W>
-49.273

> <W(PB)>
-51.540

> <W(SA)>
2.267

> <Valence>
2.677

> <Coulomb>
69.622

> <VdW>
0.280

> <VdW6>
-7.328

> <VdW12>
7.608

> <Bond>
0.212

> <Angle>
0.911

> <Pdih>
1.555

> <Idih>
0.000

> <Tether>
0.000

$$$$
VeraChem MOL file


 26 25  0  0  0  0  0  0  0  0999 V2000     
   22.1407   19.9732   21.6096 N   0  3  0  0  0  0  0  0  0  0  0  0
   22.7216   19.2412   22.0473 H   0  0  0  0  0  0  0  0  0  0  0  0
   22.4169   20.8546   22.0696 H   0  0  0  0  0  0  0  0  0  0  0  0
   20.6720   19.6926   21.8562 C   0  0  0  0  0  0  0  0  0  0  0  0
   20.4228   18.7505   21.3613 H   0  0  0  0  0  0  0  0  0  0  0  0
   20.0944   20.4921   21.3856 H   0  0  0  0  0  0  0  0  0  0  0  0
   20.3115   19.6036   23.3502 C   0  0  0  0  0  0  0  0  0  0  0  0
   20.9103   18.8106   23.8156 H   0  0  0  0  0  0  0  0  0  0  0  0
   20.5778   20.5459   23.8470 H   0  0  0  0  0  0  0  0  0  0  0  0
   18.8046   19.3175   23.5498 C   0  0  0  0  0  0  0  0  0  0  0  0
   18.5445   18.3561   23.0871 H   0  0  0  0  0  0  0  0  0  0  0  0
   18.2228   20.0781   23.0107 H   0  0  0  0  0  0  0  0  0  0  0  0
   18.3621   19.3271   25.0361 C   0  0  0  0  0  0  0  0  0  0  0  0
   18.5255   20.3313   25.4511 H   0  0  0  0  0  0  0  0  0  0  0  0
   17.2775   19.1569   25.0817 H   0  0  0  0  0  0  0  0  0  0  0  0
   19.0701   18.2901   25.9452 C   0  0  0  0  0  0  0  0  0  0  0  0
   18.6760   18.3937   26.9659 H   0  0  0  0  0  0  0  0  0  0  0  0
   20.1428   18.5149   26.0145 H   0  0  0  0  0  0  0  0  0  0  0  0
   18.8719   16.8289   25.4819 C   0  0  0  0  0  0  0  0  0  0  0  0
   17.8056   16.5861   25.3870 H   0  0  0  0  0  0  0  0  0  0  0  0
   19.3114   16.1324   26.2076 H   0  0  0  0  0  0  0  0  0  0  0  0
   19.3544   16.6446   24.5140 H   0  0  0  0  0  0  0  0  0  0  0  0
   22.4102   20.0448   20.1129 C   0  0  0  0  0  0  0  0  0  0  0  0
   21.8101   20.8470   19.6779 H   0  0  0  0  0  0  0  0  0  0  0  0
   23.4711   20.2474   19.9492 H   0  0  0  0  0  0  0  0  0  0  0  0
   22.1418   19.0909   19.6536 H   0  0  0  0  0  0  0  0  0  0  0  0
  1  2  1  0  0  0  0
  1  3  1  0  0  0  0
  1  4  1  0  0  0  0
  4  5  1  0  0  0  0
  4  6  1  0  0  0  0
  4  7  1  0  0  0  0
  7  8  1  0  0  0  0
  7  9  1  0  0  0  0
  7 10  1  0  0  0  0
 10 11  1  0  0  0  0
 10 12  1  0  0  0  0
 10 13  1  0  0  0  0
 13 14  1  0  0  0  0
 13 15  1  0  0  0  0
 13 16  1  0  0  0  0
 16 17  1  0  0  0  0
 16 18  1  0  0  0  0
 16 19  1  0  0  0  0
 19 20  1  0  0  0  0
 19 21  1  0  0  0  0
 19 22  1  0  0  0  0
  1 23  1  0  0  0  0
 23 24  1  0  0  0  0
 23 25  1  0  0  0  0
 23 26  1  0  0  0  0
M  END
> <VConfSearch Rank>
375

> <Conf_Id>
30

> <Delta U+W>
0.910

> <U+W>
22.752

> <U>
71.870

> <W>
-49.118

> <W(PB)>
-51.409

> <W(SA)>
2.290

> <Valence>
2.682

> <Coulomb>
68.933

> <VdW>
0.255

> <VdW6>
-6.833

> <VdW12>
7.088

> <Bond>
0.205

> <Angle>
1.003

> <Pdih>
1.473

> <Idih>
0.000

> <Tether>
0.000

$$$$
VeraChem MOL file


 26 25  0  0  0  0  0  0  0  0999 V2000     
   17.8521   17.3135   23.7845 N   0  3  0  0  0  0  0  0  0  0  0  0
   17.8344   16.7853   22.8982 H   0  0  0  0  0  0  0  0  0  0  0  0
   17.2477   18.1348   23.6269 H   0  0  0  0  0  0  0  0  0  0  0  0
   19.2663   17.7575   24.1003 C   0  0  0  0  0  0  0  0  0  0  0  0
   19.8731   16.8612   24.2513 H   0  0  0  0  0  0  0  0  0  0  0  0
   19.2402   18.3179   25.0382 H   0  0  0  0  0  0  0  0  0  0  0  0
   19.8927   18.6269   22.9950 C   0  0  0  0  0  0  0  0  0  0  0  0
   19.9025   18.0663   22.0508 H   0  0  0  0  0  0  0  0  0  0  0  0
   19.2655   19.5138   22.8396 H   0  0  0  0  0  0  0  0  0  0  0  0
   21.3334   19.0532   23.3626 C   0  0  0  0  0  0  0  0  0  0  0  0
   21.9238   18.1548   23.5906 H   0  0  0  0  0  0  0  0  0  0  0  0
   21.3208   19.6474   24.2861 H   0  0  0  0  0  0  0  0  0  0  0  0
   22.0550   19.8388   22.2369 C   0  0  0  0  0  0  0  0  0  0  0  0
   23.0789   20.0642   22.5654 H   0  0  0  0  0  0  0  0  0  0  0  0
   22.1588   19.1884   21.3574 H   0  0  0  0  0  0  0  0  0  0  0  0
   21.3665   21.1584   21.8033 C   0  0  0  0  0  0  0  0  0  0  0  0
   20.3864   20.9464   21.3554 H   0  0  0  0  0  0  0  0  0  0  0  0
   21.9663   21.6198   21.0063 H   0  0  0  0  0  0  0  0  0  0  0  0
   21.2047   22.1755   22.9558 C   0  0  0  0  0  0  0  0  0  0  0  0
   20.5157   21.8056   23.7252 H   0  0  0  0  0  0  0  0  0  0  0  0
   20.7997   23.1233   22.5782 H   0  0  0  0  0  0  0  0  0  0  0  0
   22.1703   22.3891   23.4321 H   0  0  0  0  0  0  0  0  0  0  0  0
   17.3097   16.4623   24.9243 C   0  0  0  0  0  0  0  0  0  0  0  0
   16.2911   16.1491   24.6842 H   0  0  0  0  0  0  0  0  0  0  0  0
   17.9458   15.5834   25.0503 H   0  0  0  0  0  0  0  0  0  0  0  0
   17.3072   17.0523   25.8434 H   0  0  0  0  0  0  0  0  0  0  0  0
  1  2  1  0  0  0  0
  1  3  1  0  0  0  0
  1  4  1  0  0  0  0
  4  5  1  0  0  0  0
  4  6  1  0  0  0  0
  4  7  1  0  0  0  0
  7  8  1  0  0  0  0
  7  9  1  0  0  0  0
  7 10  1  0  0  0  0
 10 11  1  0  0  0  0
 10 12  1  0  0  0  0
 10 13  1  0  0  0  0
 13 14  1  0  0  0  0
 13 15  1  0  0  0  0
 13 16  1  0  0  0  0
 16 17  1  0  0  0  0
 16 18  1  0  0  0  0
 16 19  1  0  0  0  0
 19 20  1  0  0  0  0
 19 21  1  0  0  0  0
 19 22  1  0  0  0  0
  1 23  1  0  0  0  0
 23 24  1  0  0  0  0
 23 25  1  0  0  0  0
 23 26  1  0  0  0  0
M  END
> <VConfSearch Rank>
376

> <Conf_Id>
29

> <Delta U+W>
0.886

> <U+W>
22.729

> <U>
71.870

> <W>
-49.141

> <W(PB)>
-51.404

> <W(SA)>
2.262

> <Valence>
2.682

> <Coulomb>
68.933

> <VdW>
0.255

> <VdW6>
-6.833

> <VdW12>
7.088

> <Bond>
0.205

> <Angle>
1.003

> <Pdih>
1.473

> <Idih>
0.000

> <Tether>
0.000

$$$$
VeraChem MOL file


 26 25  0  0  0  0  0  0  0  0999 V2000     
   22.1147   17.5200   23.4434 N   0  3  0  0  0  0  0  0  0  0  0  0
   21.9870   16.6243   23.9394 H   0  0  0  0  0  0  0  0  0  0  0  0
   22.4547   18.1831   24.1570 H   0  0  0  0  0  0  0  0  0  0  0  0
   20.7932   17.9955   22.8745 C   0  0  0  0  0  0  0  0  0  0  0  0
   20.4625   17.2620   22.1348 H   0  0  0  0  0  0  0  0  0  0  0  0
   20.9725   18.9442   22.3630 H   0  0  0  0  0  0  0  0  0  0  0  0
   19.7006   18.1811   23.9445 C   0  0  0  0  0  0  0  0  0  0  0  0
   19.5532   17.2319   24.4764 H   0  0  0  0  0  0  0  0  0  0  0  0
   20.0378   18.9064   24.6960 H   0  0  0  0  0  0  0  0  0  0  0  0
   18.3465   18.6329   23.3431 C   0  0  0  0  0  0  0  0  0  0  0  0
   17.6088   18.7284   24.1510 H   0  0  0  0  0  0  0  0  0  0  0  0
   17.9660   17.8368   22.6881 H   0  0  0  0  0  0  0  0  0  0  0  0
   18.4027   19.9559   22.5323 C   0  0  0  0  0  0  0  0  0  0  0  0
   19.0103   19.8054   21.6298 H   0  0  0  0  0  0  0  0  0  0  0  0
   17.3916   20.1886   22.1708 H   0  0  0  0  0  0  0  0  0  0  0  0
   18.9508   21.1815   23.3070 C   0  0  0  0  0  0  0  0  0  0  0  0
   18.9544   22.0490   22.6324 H   0  0  0  0  0  0  0  0  0  0  0  0
   19.9994   21.0156   23.5880 H   0  0  0  0  0  0  0  0  0  0  0  0
   18.1228   21.5326   24.5639 C   0  0  0  0  0  0  0  0  0  0  0  0
   18.4986   22.4540   25.0272 H   0  0  0  0  0  0  0  0  0  0  0  0
   18.1782   20.7375   25.3177 H   0  0  0  0  0  0  0  0  0  0  0  0
   17.0670   21.6916   24.3091 H   0  0  0  0  0  0  0  0  0  0  0  0
   23.1359   17.3699   22.3243 C   0  0  0  0  0  0  0  0  0  0  0  0
   24.0828   17.0268   22.7471 H   0  0  0  0  0  0  0  0  0  0  0  0
   22.7695   16.6397   21.5994 H   0  0  0  0  0  0  0  0  0  0  0  0
   23.2787   18.3366   21.8363 H   0  0  0  0  0  0  0  0  0  0  0  0
  1  2  1  0  0  0  0
  1  3  1  0  0  0  0
  1  4  1  0  0  0  0
  4  5  1  0  0  0  0
  4  6  1  0  0  0  0
  4  7  1  0  0  0  0
  7  8  1  0  0  0  0
  7  9  1  0  0  0  0
  7 10  1  0  0  0  0
 10 11  1  0  0  0  0
 10 12  1  0  0  0  0
 10 13  1  0  0  0  0
 13 14  1  0  0  0  0
 13 15  1  0  0  0  0
 13 16  1  0  0  0  0
 16 17  1  0  0  0  0
 16 18  1  0  0  0  0
 16 19  1  0  0  0  0
 19 20  1  0  0  0  0
 19 21  1  0  0  0  0
 19 22  1  0  0  0  0
  1 23  1  0  0  0  0
 23 24  1  0  0  0  0
 23 25  1  0  0  0  0
 23 26  1  0  0  0  0
M  END
> <VConfSearch Rank>
377

> <Conf_Id>
82

> <Delta U+W>
1.026

> <U+W>
22.868

> <U>
72.455

> <W>
-49.586

> <W(PB)>
-51.821

> <W(SA)>
2.234

> <Valence>
2.908

> <Coulomb>
69.435

> <VdW>
0.112

> <VdW6>
-7.765

> <VdW12>
7.877

> <Bond>
0.233

> <Angle>
1.170

> <Pdih>
1.506

> <Idih>
0.000

> <Tether>
0.000

$$$$
VeraChem MOL file


 26 25  0  0  0  0  0  0  0  0999 V2000     
   19.6751   17.0522   21.6883 N   0  3  0  0  0  0  0  0  0  0  0  0
   20.4212   16.5766   22.2192 H   0  0  0  0  0  0  0  0  0  0  0  0
   20.0403   17.1493   20.7281 H   0  0  0  0  0  0  0  0  0  0  0  0
   19.3987   18.4182   22.2831 C   0  0  0  0  0  0  0  0  0  0  0  0
   19.0185   18.2697   23.2966 H   0  0  0  0  0  0  0  0  0  0  0  0
   18.6150   18.8920   21.6867 H   0  0  0  0  0  0  0  0  0  0  0  0
   20.6411   19.3282   22.3228 C   0  0  0  0  0  0  0  0  0  0  0  0
   21.4341   18.8466   22.9090 H   0  0  0  0  0  0  0  0  0  0  0  0
   21.0361   19.4421   21.3047 H   0  0  0  0  0  0  0  0  0  0  0  0
   20.3344   20.7324   22.9003 C   0  0  0  0  0  0  0  0  0  0  0  0
   19.6314   21.2459   22.2299 H   0  0  0  0  0  0  0  0  0  0  0  0
   21.2520   21.3355   22.8842 H   0  0  0  0  0  0  0  0  0  0  0  0
   19.7391   20.7313   24.3344 C   0  0  0  0  0  0  0  0  0  0  0  0
   19.5795   21.7721   24.6484 H   0  0  0  0  0  0  0  0  0  0  0  0
   18.7408   20.2737   24.3149 H   0  0  0  0  0  0  0  0  0  0  0  0
   20.5992   20.0127   25.4051 C   0  0  0  0  0  0  0  0  0  0  0  0
   20.6848   18.9436   25.1689 H   0  0  0  0  0  0  0  0  0  0  0  0
   20.0745   20.0660   26.3692 H   0  0  0  0  0  0  0  0  0  0  0  0
   22.0085   20.6250   25.5715 C   0  0  0  0  0  0  0  0  0  0  0  0
   22.6125   20.4978   24.6645 H   0  0  0  0  0  0  0  0  0  0  0  0
   22.5446   20.1381   26.3964 H   0  0  0  0  0  0  0  0  0  0  0  0
   21.9485   21.6976   25.7969 H   0  0  0  0  0  0  0  0  0  0  0  0
   18.4015   16.2181   21.6934 C   0  0  0  0  0  0  0  0  0  0  0  0
   17.6381   16.7248   21.0988 H   0  0  0  0  0  0  0  0  0  0  0  0
   18.6140   15.2372   21.2623 H   0  0  0  0  0  0  0  0  0  0  0  0
   18.0527   16.1013   22.7218 H   0  0  0  0  0  0  0  0  0  0  0  0
  1  2  1  0  0  0  0
  1  3  1  0  0  0  0
  1  4  1  0  0  0  0
  4  5  1  0  0  0  0
  4  6  1  0  0  0  0
  4  7  1  0  0  0  0
  7  8  1  0  0  0  0
  7  9  1  0  0  0  0
  7 10  1  0  0  0  0
 10 11  1  0  0  0  0
 10 12  1  0  0  0  0
 10 13  1  0  0  0  0
 13 14  1  0  0  0  0
 13 15  1  0  0  0  0
 13 16  1  0  0  0  0
 16 17  1  0  0  0  0
 16 18  1  0  0  0  0
 16 19  1  0  0  0  0
 19 20  1  0  0  0  0
 19 21  1  0  0  0  0
 19 22  1  0  0  0  0
  1 23  1  0  0  0  0
 23 24  1  0  0  0  0
 23 25  1  0  0  0  0
 23 26  1  0  0  0  0
M  END
> <VConfSearch Rank>
378

> <Conf_Id>
71

> <Delta U+W>
1.096

> <U+W>
22.938

> <U>
72.455

> <W>
-49.517

> <W(PB)>
-51.795

> <W(SA)>
2.278

> <Valence>
2.908

> <Coulomb>
69.435

> <VdW>
0.112

> <VdW6>
-7.766

> <VdW12>
7.877

> <Bond>
0.233

> <Angle>
1.170

> <Pdih>
1.506

> <Idih>
0.000

> <Tether>
0.000

$$$$
VeraChem MOL file


 26 25  0  0  0  0  0  0  0  0999 V2000     
   18.0506   18.6484   24.6602 N   0  3  0  0  0  0  0  0  0  0  0  0
   18.9804   18.2360   24.8280 H   0  0  0  0  0  0  0  0  0  0  0  0
   17.3840   17.8688   24.7772 H   0  0  0  0  0  0  0  0  0  0  0  0
   17.9679   19.1817   23.2388 C   0  0  0  0  0  0  0  0  0  0  0  0
   16.9778   19.6255   23.1080 H   0  0  0  0  0  0  0  0  0  0  0  0
   18.0415   18.3255   22.5640 H   0  0  0  0  0  0  0  0  0  0  0  0
   19.0522   20.2169   22.8621 C   0  0  0  0  0  0  0  0  0  0  0  0
   18.8977   20.5220   21.8187 H   0  0  0  0  0  0  0  0  0  0  0  0
   18.9134   21.1239   23.4646 H   0  0  0  0  0  0  0  0  0  0  0  0
   20.5050   19.7063   23.0348 C   0  0  0  0  0  0  0  0  0  0  0  0
   20.6951   19.4730   24.0908 H   0  0  0  0  0  0  0  0  0  0  0  0
   21.1866   20.5269   22.7762 H   0  0  0  0  0  0  0  0  0  0  0  0
   20.8260   18.4698   22.1567 C   0  0  0  0  0  0  0  0  0  0  0  0
   20.1257   17.6580   22.3929 H   0  0  0  0  0  0  0  0  0  0  0  0
   20.6665   18.7165   21.0980 H   0  0  0  0  0  0  0  0  0  0  0  0
   22.2654   17.9338   22.3503 C   0  0  0  0  0  0  0  0  0  0  0  0
   22.3714   16.9982   21.7835 H   0  0  0  0  0  0  0  0  0  0  0  0
   22.4268   17.6729   23.4056 H   0  0  0  0  0  0  0  0  0  0  0  0
   23.3596   18.9220   21.8856 C   0  0  0  0  0  0  0  0  0  0  0  0
   23.3785   19.8257   22.5070 H   0  0  0  0  0  0  0  0  0  0  0  0
   23.2018   19.2243   20.8422 H   0  0  0  0  0  0  0  0  0  0  0  0
   24.3512   18.4560   21.9530 H   0  0  0  0  0  0  0  0  0  0  0  0
   17.7530   19.7434   25.6779 C   0  0  0  0  0  0  0  0  0  0  0  0
   17.7916   19.3174   26.6830 H   0  0  0  0  0  0  0  0  0  0  0  0
   18.4996   20.5346   25.5853 H   0  0  0  0  0  0  0  0  0  0  0  0
   16.7570   20.1490   25.4873 H   0  0  0  0  0  0  0  0  0  0  0  0
  1  2  1  0  0  0  0
  1  3  1  0  0  0  0
  1  4  1  0  0  0  0
  4  5  1  0  0  0  0
  4  6  1  0  0  0  0
  4  7  1  0  0  0  0
  7  8  1  0  0  0  0
  7  9  1  0  0  0  0
  7 10  1  0  0  0  0
 10 11  1  0  0  0  0
 10 12  1  0  0  0  0
 10 13  1  0  0  0  0
 13 14  1  0  0  0  0
 13 15  1  0  0  0  0
 13 16  1  0  0  0  0
 16 17  1  0  0  0  0
 16 18  1  0  0  0  0
 16 19  1  0  0  0  0
 19 20  1  0  0  0  0
 19 21  1  0  0  0  0
 19 22  1  0  0  0  0
  1 23  1  0  0  0  0
 23 24  1  0  0  0  0
 23 25  1  0  0  0  0
 23 26  1  0  0  0  0
M  END
> <VConfSearch Rank>
379

> <Conf_Id>
84

> <Delta U+W>
1.456

> <U+W>
23.298

> <U>
73.042

> <W>
-49.744

> <W(PB)>
-51.966

> <W(SA)>
2.222

> <Valence>
2.938

> <Coulomb>
69.625

> <VdW>
0.478

> <VdW6>
-8.182

> <VdW12>
8.660

> <Bond>
0.253

> <Angle>
1.038

> <Pdih>
1.647

> <Idih>
0.000

> <Tether>
0.000

$$$$
VeraChem MOL file


 26 25  0  0  0  0  0  0  0  0999 V2000     
   19.4481   16.8318   22.9956 N   0  3  0  0  0  0  0  0  0  0  0  0
   20.0460   17.2110   23.7452 H   0  0  0  0  0  0  0  0  0  0  0  0
   20.0438   16.1705   22.4737 H   0  0  0  0  0  0  0  0  0  0  0  0
   18.9888   17.9520   22.0830 C   0  0  0  0  0  0  0  0  0  0  0  0
   18.3598   18.6267   22.6685 H   0  0  0  0  0  0  0  0  0  0  0  0
   18.3710   17.5077   21.2985 H   0  0  0  0  0  0  0  0  0  0  0  0
   20.1444   18.7447   21.4377 C   0  0  0  0  0  0  0  0  0  0  0  0
   20.7386   18.0674   20.8100 H   0  0  0  0  0  0  0  0  0  0  0  0
   19.7189   19.4956   20.7588 H   0  0  0  0  0  0  0  0  0  0  0  0
   21.0753   19.4477   22.4577 C   0  0  0  0  0  0  0  0  0  0  0  0
   21.8671   19.9711   21.9041 H   0  0  0  0  0  0  0  0  0  0  0  0
   21.5837   18.6983   23.0789 H   0  0  0  0  0  0  0  0  0  0  0  0
   20.3338   20.4616   23.3621 C   0  0  0  0  0  0  0  0  0  0  0  0
   19.8072   21.1951   22.7359 H   0  0  0  0  0  0  0  0  0  0  0  0
   19.5694   19.9458   23.9584 H   0  0  0  0  0  0  0  0  0  0  0  0
   21.3032   21.1992   24.3125 C   0  0  0  0  0  0  0  0  0  0  0  0
   22.0675   21.7285   23.7261 H   0  0  0  0  0  0  0  0  0  0  0  0
   21.8345   20.4701   24.9402 H   0  0  0  0  0  0  0  0  0  0  0  0
   20.5621   22.2081   25.2157 C   0  0  0  0  0  0  0  0  0  0  0  0
   20.0480   22.9710   24.6166 H   0  0  0  0  0  0  0  0  0  0  0  0
   21.2666   22.7220   25.8824 H   0  0  0  0  0  0  0  0  0  0  0  0
   19.8141   21.7033   25.8410 H   0  0  0  0  0  0  0  0  0  0  0  0
   18.2414   16.1152   23.5853 C   0  0  0  0  0  0  0  0  0  0  0  0
   17.6408   15.6971   22.7746 H   0  0  0  0  0  0  0  0  0  0  0  0
   18.5865   15.3124   24.2407 H   0  0  0  0  0  0  0  0  0  0  0  0
   17.6448   16.8285   24.1582 H   0  0  0  0  0  0  0  0  0  0  0  0
  1  2  1  0  0  0  0
  1  3  1  0  0  0  0
  1  4  1  0  0  0  0
  4  5  1  0  0  0  0
  4  6  1  0  0  0  0
  4  7  1  0  0  0  0
  7  8  1  0  0  0  0
  7  9  1  0  0  0  0
  7 10  1  0  0  0  0
 10 11  1  0  0  0  0
 10 12  1  0  0  0  0
 10 13  1  0  0  0  0
 13 14  1  0  0  0  0
 13 15  1  0  0  0  0
 13 16  1  0  0  0  0
 16 17  1  0  0  0  0
 16 18  1  0  0  0  0
 16 19  1  0  0  0  0
 19 20  1  0  0  0  0
 19 21  1  0  0  0  0
 19 22  1  0  0  0  0
  1 23  1  0  0  0  0
 23 24  1  0  0  0  0
 23 25  1  0  0  0  0
 23 26  1  0  0  0  0
M  END
> <VConfSearch Rank>
380

> <Conf_Id>
73

> <Delta U+W>
0.884

> <U+W>
22.726

> <U>
71.905

> <W>
-49.179

> <W(PB)>
-51.494

> <W(SA)>
2.315

> <Valence>
2.125

> <Coulomb>
69.686

> <VdW>
0.093

> <VdW6>
-6.766

> <VdW12>
6.859

> <Bond>
0.169

> <Angle>
0.621

> <Pdih>
1.336

> <Idih>
0.000

> <Tether>
0.000

$$$$
VeraChem MOL file


 26 25  0  0  0  0  0  0  0  0999 V2000     
   21.3915   16.1892   23.8428 N   0  3  0  0  0  0  0  0  0  0  0  0
   20.6710   15.6424   23.3461 H   0  0  0  0  0  0  0  0  0  0  0  0
   21.1309   16.1443   24.8403 H   0  0  0  0  0  0  0  0  0  0  0  0
   21.3799   17.6269   23.3635 C   0  0  0  0  0  0  0  0  0  0  0  0
   21.6519   17.6295   22.3049 H   0  0  0  0  0  0  0  0  0  0  0  0
   22.1484   18.1714   23.9179 H   0  0  0  0  0  0  0  0  0  0  0  0
   20.0179   18.3198   23.5500 C   0  0  0  0  0  0  0  0  0  0  0  0
   19.2459   17.7602   23.0050 H   0  0  0  0  0  0  0  0  0  0  0  0
   19.7408   18.3002   24.6125 H   0  0  0  0  0  0  0  0  0  0  0  0
   20.0534   19.7805   23.0484 C   0  0  0  0  0  0  0  0  0  0  0  0
   20.3362   19.7961   21.9865 H   0  0  0  0  0  0  0  0  0  0  0  0
   20.8307   20.3355   23.5920 H   0  0  0  0  0  0  0  0  0  0  0  0
   18.6906   20.4867   23.2309 C   0  0  0  0  0  0  0  0  0  0  0  0
   17.9133   19.9320   22.6872 H   0  0  0  0  0  0  0  0  0  0  0  0
   18.4077   20.4712   24.2926 H   0  0  0  0  0  0  0  0  0  0  0  0
   18.7265   21.9476   22.7291 C   0  0  0  0  0  0  0  0  0  0  0  0
   19.0067   21.9684   21.6665 H   0  0  0  0  0  0  0  0  0  0  0  0
   19.5010   22.5076   23.2718 H   0  0  0  0  0  0  0  0  0  0  0  0
   17.3640   22.6496   22.9129 C   0  0  0  0  0  0  0  0  0  0  0  0
   17.4094   23.6850   22.5511 H   0  0  0  0  0  0  0  0  0  0  0  0
   17.0724   22.6752   23.9710 H   0  0  0  0  0  0  0  0  0  0  0  0
   16.5742   22.1317   22.3532 H   0  0  0  0  0  0  0  0  0  0  0  0
   22.7697   15.5808   23.6231 C   0  0  0  0  0  0  0  0  0  0  0  0
   23.5097   16.1556   24.1843 H   0  0  0  0  0  0  0  0  0  0  0  0
   22.7643   14.5459   23.9724 H   0  0  0  0  0  0  0  0  0  0  0  0
   23.0092   15.6093   22.5578 H   0  0  0  0  0  0  0  0  0  0  0  0
  1  2  1  0  0  0  0
  1  3  1  0  0  0  0
  1  4  1  0  0  0  0
  4  5  1  0  0  0  0
  4  6  1  0  0  0  0
  4  7  1  0  0  0  0
  7  8  1  0  0  0  0
  7  9  1  0  0  0  0
  7 10  1  0  0  0  0
 10 11  1  0  0  0  0
 10 12  1  0  0  0  0
 10 13  1  0  0  0  0
 13 14  1  0  0  0  0
 13 15  1  0  0  0  0
 13 16  1  0  0  0  0
 16 17  1  0  0  0  0
 16 18  1  0  0  0  0
 16 19  1  0  0  0  0
 19 20  1  0  0  0  0
 19 21  1  0  0  0  0
 19 22  1  0  0  0  0
  1 23  1  0  0  0  0
 23 24  1  0  0  0  0
 23 25  1  0  0  0  0
 23 26  1  0  0  0  0
M  END
> <VConfSearch Rank>
381

> <Conf_Id>
11

> <Delta U+W>
0.000

> <U+W>
21.842

> <U>
70.357

> <W>
-48.515

> <W(PB)>
-50.856

> <W(SA)>
2.341

> <Valence>
1.714

> <Coulomb>
68.480

> <VdW>
0.163

> <VdW6>
-5.268

> <VdW12>
5.431

> <Bond>
0.126

> <Angle>
0.350

> <Pdih>
1.238

> <Idih>
0.000

> <Tether>
0.000

$$$$
VeraChem MOL file


 26 25  0  0  0  0  0  0  0  0999 V2000     
   23.3298   18.4657   23.1354 N   0  3  0  0  0  0  0  0  0  0  0  0
   24.1758   18.7030   23.6775 H   0  0  0  0  0  0  0  0  0  0  0  0
   23.4563   18.9359   22.2258 H   0  0  0  0  0  0  0  0  0  0  0  0
   22.1020   19.0132   23.8438 C   0  0  0  0  0  0  0  0  0  0  0  0
   22.3074   20.0587   24.0878 H   0  0  0  0  0  0  0  0  0  0  0  0
   21.9810   18.4639   24.7808 H   0  0  0  0  0  0  0  0  0  0  0  0
   20.8005   18.9378   23.0197 C   0  0  0  0  0  0  0  0  0  0  0  0
   20.9475   19.4495   22.0594 H   0  0  0  0  0  0  0  0  0  0  0  0
   20.5644   17.8899   22.7936 H   0  0  0  0  0  0  0  0  0  0  0  0
   19.6167   19.5808   23.7758 C   0  0  0  0  0  0  0  0  0  0  0  0
   19.8540   20.6294   24.0038 H   0  0  0  0  0  0  0  0  0  0  0  0
   19.4771   19.0702   24.7389 H   0  0  0  0  0  0  0  0  0  0  0  0
   18.3056   19.5131   22.9599 C   0  0  0  0  0  0  0  0  0  0  0  0
   18.4452   20.0234   21.9968 H   0  0  0  0  0  0  0  0  0  0  0  0
   18.0680   18.4647   22.7321 H   0  0  0  0  0  0  0  0  0  0  0  0
   17.1219   20.1563   23.7164 C   0  0  0  0  0  0  0  0  0  0  0  0
   17.3536   21.2062   23.9445 H   0  0  0  0  0  0  0  0  0  0  0  0
   16.9766   19.6477   24.6798 H   0  0  0  0  0  0  0  0  0  0  0  0
   15.8144   20.0868   22.8987 C   0  0  0  0  0  0  0  0  0  0  0  0
   14.9861   20.5482   23.4520 H   0  0  0  0  0  0  0  0  0  0  0  0
   15.5377   19.0464   22.6841 H   0  0  0  0  0  0  0  0  0  0  0  0
   15.9176   20.6172   21.9431 H   0  0  0  0  0  0  0  0  0  0  0  0
   23.2369   16.9545   22.9566 C   0  0  0  0  0  0  0  0  0  0  0  0
   22.3766   16.7166   22.3279 H   0  0  0  0  0  0  0  0  0  0  0  0
   24.1510   16.5945   22.4791 H   0  0  0  0  0  0  0  0  0  0  0  0
   23.1226   16.4838   23.9355 H   0  0  0  0  0  0  0  0  0  0  0  0
  1  2  1  0  0  0  0
  1  3  1  0  0  0  0
  1  4  1  0  0  0  0
  4  5  1  0  0  0  0
  4  6  1  0  0  0  0
  4  7  1  0  0  0  0
  7  8  1  0  0  0  0
  7  9  1  0  0  0  0
  7 10  1  0  0  0  0
 10 11  1  0  0  0  0
 10 12  1  0  0  0  0
 10 13  1  0  0  0  0
 13 14  1  0  0  0  0
 13 15  1  0  0  0  0
 13 16  1  0  0  0  0
 16 17  1  0  0  0  0
 16 18  1  0  0  0  0
 16 19  1  0  0  0  0
 19 20  1  0  0  0  0
 19 21  1  0  0  0  0
 19 22  1  0  0  0  0
  1 23  1  0  0  0  0
 23 24  1  0  0  0  0
 23 25  1  0  0  0  0
 23 26  1  0  0  0  0
M  END
> <VConfSearch Rank>
382

> <Conf_Id>
102

> <Delta U+W>
0.121

> <U+W>
21.963

> <U>
70.745

> <W>
-48.782

> <W(PB)>
-51.111

> <W(SA)>
2.329

> <Valence>
1.993

> <Coulomb>
68.323

> <VdW>
0.429

> <VdW6>
-5.973

> <VdW12>
6.402

> <Bond>
0.161

> <Angle>
0.472

> <Pdih>
1.360

> <Idih>
0.000

> <Tether>
0.000

$$$$
VeraChem MOL file


 26 25  0  0  0  0  0  0  0  0999 V2000     
   20.6296   15.8492   22.3399 N   0  3  0  0  0  0  0  0  0  0  0  0
   19.6654   15.7080   22.0007 H   0  0  0  0  0  0  0  0  0  0  0  0
   20.8911   14.9522   22.7793 H   0  0  0  0  0  0  0  0  0  0  0  0
   20.6634   16.9546   23.3821 C   0  0  0  0  0  0  0  0  0  0  0  0
   21.7033   17.0994   23.6856 H   0  0  0  0  0  0  0  0  0  0  0  0
   20.1032   16.5989   24.2506 H   0  0  0  0  0  0  0  0  0  0  0  0
   20.0622   18.2952   22.9132 C   0  0  0  0  0  0  0  0  0  0  0  0
   20.6349   18.6807   22.0598 H   0  0  0  0  0  0  0  0  0  0  0  0
   19.0343   18.1310   22.5638 H   0  0  0  0  0  0  0  0  0  0  0  0
   20.0642   19.3418   24.0495 C   0  0  0  0  0  0  0  0  0  0  0  0
   21.0938   19.4984   24.4008 H   0  0  0  0  0  0  0  0  0  0  0  0
   19.4924   18.9551   24.9047 H   0  0  0  0  0  0  0  0  0  0  0  0
   19.4628   20.6906   23.5930 C   0  0  0  0  0  0  0  0  0  0  0  0
   20.0347   21.0776   22.7382 H   0  0  0  0  0  0  0  0  0  0  0  0
   18.4335   20.5340   23.2415 H   0  0  0  0  0  0  0  0  0  0  0  0
   19.4649   21.7370   24.7297 C   0  0  0  0  0  0  0  0  0  0  0  0
   20.4929   21.8990   25.0834 H   0  0  0  0  0  0  0  0  0  0  0  0
   18.8917   21.3556   25.5865 H   0  0  0  0  0  0  0  0  0  0  0  0
   18.8639   23.0826   24.2701 C   0  0  0  0  0  0  0  0  0  0  0  0
   19.4372   23.5066   23.4354 H   0  0  0  0  0  0  0  0  0  0  0  0
   18.8740   23.8120   25.0903 H   0  0  0  0  0  0  0  0  0  0  0  0
   17.8235   22.9590   23.9423 H   0  0  0  0  0  0  0  0  0  0  0  0
   21.5732   16.1525   21.1815 C   0  0  0  0  0  0  0  0  0  0  0  0
   22.5869   16.2782   21.5681 H   0  0  0  0  0  0  0  0  0  0  0  0
   21.5490   15.3206   20.4740 H   0  0  0  0  0  0  0  0  0  0  0  0
   21.2505   17.0681   20.6820 H   0  0  0  0  0  0  0  0  0  0  0  0
  1  2  1  0  0  0  0
  1  3  1  0  0  0  0
  1  4  1  0  0  0  0
  4  5  1  0  0  0  0
  4  6  1  0  0  0  0
  4  7  1  0  0  0  0
  7  8  1  0  0  0  0
  7  9  1  0  0  0  0
  7 10  1  0  0  0  0
 10 11  1  0  0  0  0
 10 12  1  0  0  0  0
 10 13  1  0  0  0  0
 13 14  1  0  0  0  0
 13 15  1  0  0  0  0
 13 16  1  0  0  0  0
 16 17  1  0  0  0  0
 16 18  1  0  0  0  0
 16 19  1  0  0  0  0
 19 20  1  0  0  0  0
 19 21  1  0  0  0  0
 19 22  1  0  0  0  0
  1 23  1  0  0  0  0
 23 24  1  0  0  0  0
 23 25  1  0  0  0  0
 23 26  1  0  0  0  0
M  END
> <VConfSearch Rank>
383

> <Conf_Id>
37

> <Delta U+W>
0.125

> <U+W>
21.967

> <U>
70.745

> <W>
-48.778

> <W(PB)>
-51.115

> <W(SA)>
2.337

> <Valence>
1.993

> <Coulomb>
68.323

> <VdW>
0.429

> <VdW6>
-5.973

> <VdW12>
6.403

> <Bond>
0.161

> <Angle>
0.472

> <Pdih>
1.360

> <Idih>
0.000

> <Tether>
0.000

$$$$
VeraChem MOL file


 26 25  0  0  0  0  0  0  0  0999 V2000     
   17.5953   17.3772   23.8705 N   0  3  0  0  0  0  0  0  0  0  0  0
   17.6982   16.8957   24.7773 H   0  0  0  0  0  0  0  0  0  0  0  0
   17.7782   16.6567   23.1549 H   0  0  0  0  0  0  0  0  0  0  0  0
   18.6088   18.4979   23.7553 C   0  0  0  0  0  0  0  0  0  0  0  0
   18.3874   19.2316   24.5345 H   0  0  0  0  0  0  0  0  0  0  0  0
   18.4679   18.9746   22.7825 H   0  0  0  0  0  0  0  0  0  0  0  0
   20.0662   18.0171   23.8955 C   0  0  0  0  0  0  0  0  0  0  0  0
   20.1808   17.4989   24.8569 H   0  0  0  0  0  0  0  0  0  0  0  0
   20.2895   17.2801   23.1127 H   0  0  0  0  0  0  0  0  0  0  0  0
   21.0894   19.1756   23.8261 C   0  0  0  0  0  0  0  0  0  0  0  0
   22.0847   18.7680   24.0454 H   0  0  0  0  0  0  0  0  0  0  0  0
   20.8704   19.9056   24.6176 H   0  0  0  0  0  0  0  0  0  0  0  0
   21.1105   19.8869   22.4489 C   0  0  0  0  0  0  0  0  0  0  0  0
   21.3496   19.1603   21.6602 H   0  0  0  0  0  0  0  0  0  0  0  0
   20.1087   20.2732   22.2194 H   0  0  0  0  0  0  0  0  0  0  0  0
   22.1084   21.0686   22.3811 C   0  0  0  0  0  0  0  0  0  0  0  0
   21.8670   21.8045   23.1609 H   0  0  0  0  0  0  0  0  0  0  0  0
   21.9764   21.5857   21.4203 H   0  0  0  0  0  0  0  0  0  0  0  0
   23.5868   20.6366   22.5130 C   0  0  0  0  0  0  0  0  0  0  0  0
   23.8011   20.2272   23.5078 H   0  0  0  0  0  0  0  0  0  0  0  0
   24.2527   21.4958   22.3607 H   0  0  0  0  0  0  0  0  0  0  0  0
   23.8446   19.8761   21.7645 H   0  0  0  0  0  0  0  0  0  0  0  0
   16.1868   17.9351   23.7189 C   0  0  0  0  0  0  0  0  0  0  0  0
   16.0920   18.4098   22.7398 H   0  0  0  0  0  0  0  0  0  0  0  0
   15.4669   17.1180   23.8040 H   0  0  0  0  0  0  0  0  0  0  0  0
   16.0051   18.6702   24.5060 H   0  0  0  0  0  0  0  0  0  0  0  0
  1  2  1  0  0  0  0
  1  3  1  0  0  0  0
  1  4  1  0  0  0  0
  4  5  1  0  0  0  0
  4  6  1  0  0  0  0
  4  7  1  0  0  0  0
  7  8  1  0  0  0  0
  7  9  1  0  0  0  0
  7 10  1  0  0  0  0
 10 11  1  0  0  0  0
 10 12  1  0  0  0  0
 10 13  1  0  0  0  0
 13 14  1  0  0  0  0
 13 15  1  0  0  0  0
 13 16  1  0  0  0  0
 16 17  1  0  0  0  0
 16 18  1  0  0  0  0
 16 19  1  0  0  0  0
 19 20  1  0  0  0  0
 19 21  1  0  0  0  0
 19 22  1  0  0  0  0
  1 23  1  0  0  0  0
 23 24  1  0  0  0  0
 23 25  1  0  0  0  0
 23 26  1  0  0  0  0
M  END
> <VConfSearch Rank>
384

> <Conf_Id>
137

> <Delta U+W>
1.038

> <U+W>
22.880

> <U>
71.810

> <W>
-48.930

> <W(PB)>
-51.257

> <W(SA)>
2.327

> <Valence>
2.568

> <Coulomb>
68.877

> <VdW>
0.364

> <VdW6>
-6.470

> <VdW12>
6.834

> <Bond>
0.191

> <Angle>
0.752

> <Pdih>
1.626

> <Idih>
0.000

> <Tether>
0.000

$$$$
VeraChem MOL file


 26 25  0  0  0  0  0  0  0  0999 V2000     
   22.8888   18.1162   23.0614 N   0  3  0  0  0  0  0  0  0  0  0  0
   22.5062   17.2507   22.6501 H   0  0  0  0  0  0  0  0  0  0  0  0
   23.0029   17.9152   24.0671 H   0  0  0  0  0  0  0  0  0  0  0  0
   21.9177   19.2629   22.8642 C   0  0  0  0  0  0  0  0  0  0  0  0
   21.8189   19.4378   21.7899 H   0  0  0  0  0  0  0  0  0  0  0  0
   22.3555   20.1549   23.3194 H   0  0  0  0  0  0  0  0  0  0  0  0
   20.5298   18.9977   23.4753 C   0  0  0  0  0  0  0  0  0  0  0  0
   20.1090   18.0901   23.0246 H   0  0  0  0  0  0  0  0  0  0  0  0
   20.6358   18.8066   24.5515 H   0  0  0  0  0  0  0  0  0  0  0  0
   19.5775   20.1959   23.2503 C   0  0  0  0  0  0  0  0  0  0  0  0
   19.4323   20.3566   22.1729 H   0  0  0  0  0  0  0  0  0  0  0  0
   20.0547   21.1077   23.6357 H   0  0  0  0  0  0  0  0  0  0  0  0
   18.2009   20.0329   23.9410 C   0  0  0  0  0  0  0  0  0  0  0  0
   18.3450   19.8899   25.0208 H   0  0  0  0  0  0  0  0  0  0  0  0
   17.6413   20.9717   23.8272 H   0  0  0  0  0  0  0  0  0  0  0  0
   17.3539   18.8710   23.3693 C   0  0  0  0  0  0  0  0  0  0  0  0
   17.8590   17.9116   23.5431 H   0  0  0  0  0  0  0  0  0  0  0  0
   17.2530   18.9856   22.2809 H   0  0  0  0  0  0  0  0  0  0  0  0
   15.9505   18.8206   24.0102 C   0  0  0  0  0  0  0  0  0  0  0  0
   16.0176   18.6765   25.0964 H   0  0  0  0  0  0  0  0  0  0  0  0
   15.3647   17.9898   23.5959 H   0  0  0  0  0  0  0  0  0  0  0  0
   15.3963   19.7494   23.8222 H   0  0  0  0  0  0  0  0  0  0  0  0
   24.2309   18.4596   22.4299 C   0  0  0  0  0  0  0  0  0  0  0  0
   24.6311   19.3588   22.9036 H   0  0  0  0  0  0  0  0  0  0  0  0
   24.9207   17.6259   22.5791 H   0  0  0  0  0  0  0  0  0  0  0  0
   24.0904   18.6355   21.3611 H   0  0  0  0  0  0  0  0  0  0  0  0
  1  2  1  0  0  0  0
  1  3  1  0  0  0  0
  1  4  1  0  0  0  0
  4  5  1  0  0  0  0
  4  6  1  0  0  0  0
  4  7  1  0  0  0  0
  7  8  1  0  0  0  0
  7  9  1  0  0  0  0
  7 10  1  0  0  0  0
 10 11  1  0  0  0  0
 10 12  1  0  0  0  0
 10 13  1  0  0  0  0
 13 14  1  0  0  0  0
 13 15  1  0  0  0  0
 13 16  1  0  0  0  0
 16 17  1  0  0  0  0
 16 18  1  0  0  0  0
 16 19  1  0  0  0  0
 19 20  1  0  0  0  0
 19 21  1  0  0  0  0
 19 22  1  0  0  0  0
  1 23  1  0  0  0  0
 23 24  1  0  0  0  0
 23 25  1  0  0  0  0
 23 26  1  0  0  0  0
M  END
> <VConfSearch Rank>
385

> <Conf_Id>
35

> <Delta U+W>
0.670

> <U+W>
22.512

> <U>
71.348

> <W>
-48.837

> <W(PB)>
-51.150

> <W(SA)>
2.313

> <Valence>
2.262

> <Coulomb>
68.807

> <VdW>
0.280

> <VdW6>
-5.915

> <VdW12>
6.195

> <Bond>
0.164

> <Angle>
0.622

> <Pdih>
1.475

> <Idih>
0.000

> <Tether>
0.000

$$$$
VeraChem MOL file


 26 25  0  0  0  0  0  0  0  0999 V2000     
   22.7439   18.6737   24.4302 N   0  3  0  0  0  0  0  0  0  0  0  0
   22.4347   18.6803   25.4146 H   0  0  0  0  0  0  0  0  0  0  0  0
   22.9249   19.6614   24.1925 H   0  0  0  0  0  0  0  0  0  0  0  0
   21.6506   18.1138   23.5424 C   0  0  0  0  0  0  0  0  0  0  0  0
   21.4848   17.0728   23.8310 H   0  0  0  0  0  0  0  0  0  0  0  0
   22.0135   18.1318   22.5117 H   0  0  0  0  0  0  0  0  0  0  0  0
   20.3276   18.8952   23.6393 C   0  0  0  0  0  0  0  0  0  0  0  0
   19.9754   18.8882   24.6793 H   0  0  0  0  0  0  0  0  0  0  0  0
   20.5105   19.9418   23.3656 H   0  0  0  0  0  0  0  0  0  0  0  0
   19.2448   18.2845   22.7185 C   0  0  0  0  0  0  0  0  0  0  0  0
   19.1368   17.2167   22.9547 H   0  0  0  0  0  0  0  0  0  0  0  0
   19.5761   18.3361   21.6720 H   0  0  0  0  0  0  0  0  0  0  0  0
   17.8584   18.9606   22.8579 C   0  0  0  0  0  0  0  0  0  0  0  0
   17.1322   18.3915   22.2610 H   0  0  0  0  0  0  0  0  0  0  0  0
   17.5188   18.8935   23.9007 H   0  0  0  0  0  0  0  0  0  0  0  0
   17.8395   20.4376   22.3971 C   0  0  0  0  0  0  0  0  0  0  0  0
   18.2279   20.5117   21.3717 H   0  0  0  0  0  0  0  0  0  0  0  0
   18.5002   21.0421   23.0325 H   0  0  0  0  0  0  0  0  0  0  0  0
   16.4156   21.0318   22.4484 C   0  0  0  0  0  0  0  0  0  0  0  0
   15.7321   20.4781   21.7916 H   0  0  0  0  0  0  0  0  0  0  0  0
   16.4209   22.0798   22.1215 H   0  0  0  0  0  0  0  0  0  0  0  0
   16.0109   20.9993   23.4684 H   0  0  0  0  0  0  0  0  0  0  0  0
   24.0122   17.8460   24.2745 C   0  0  0  0  0  0  0  0  0  0  0  0
   24.3383   17.8810   23.2326 H   0  0  0  0  0  0  0  0  0  0  0  0
   24.7912   18.2595   24.9189 H   0  0  0  0  0  0  0  0  0  0  0  0
   23.8048   16.8132   24.5629 H   0  0  0  0  0  0  0  0  0  0  0  0
  1  2  1  0  0  0  0
  1  3  1  0  0  0  0
  1  4  1  0  0  0  0
  4  5  1  0  0  0  0
  4  6  1  0  0  0  0
  4  7  1  0  0  0  0
  7  8  1  0  0  0  0
  7  9  1  0  0  0  0
  7 10  1  0  0  0  0
 10 11  1  0  0  0  0
 10 12  1  0  0  0  0
 10 13  1  0  0  0  0
 13 14  1  0  0  0  0
 13 15  1  0  0  0  0
 13 16  1  0  0  0  0
 16 17  1  0  0  0  0
 16 18  1  0  0  0  0
 16 19  1  0  0  0  0
 19 20  1  0  0  0  0
 19 21  1  0  0  0  0
 19 22  1  0  0  0  0
  1 23  1  0  0  0  0
 23 24  1  0  0  0  0
 23 25  1  0  0  0  0
 23 26  1  0  0  0  0
M  END
> <VConfSearch Rank>
386

> <Conf_Id>
36

> <Delta U+W>
0.662

> <U+W>
22.504

> <U>
71.348

> <W>
-48.844

> <W(PB)>
-51.157

> <W(SA)>
2.313

> <Valence>
2.262

> <Coulomb>
68.807

> <VdW>
0.280

> <VdW6>
-5.916

> <VdW12>
6.195

> <Bond>
0.164

> <Angle>
0.622

> <Pdih>
1.475

> <Idih>
0.000

> <Tether>
0.000

$$$$
VeraChem MOL file


 26 25  0  0  0  0  0  0  0  0999 V2000     
   19.9392   22.0472   23.9296 N   0  3  0  0  0  0  0  0  0  0  0  0
   19.5361   21.9373   24.8731 H   0  0  0  0  0  0  0  0  0  0  0  0
   19.2460   22.5958   23.3972 H   0  0  0  0  0  0  0  0  0  0  0  0
   20.1390   20.6904   23.2848 C   0  0  0  0  0  0  0  0  0  0  0  0
   20.8733   20.1437   23.8812 H   0  0  0  0  0  0  0  0  0  0  0  0
   20.5555   20.8512   22.2873 H   0  0  0  0  0  0  0  0  0  0  0  0
   18.8392   19.8699   23.1775 C   0  0  0  0  0  0  0  0  0  0  0  0
   18.4197   19.7098   24.1797 H   0  0  0  0  0  0  0  0  0  0  0  0
   18.0951   20.4485   22.6140 H   0  0  0  0  0  0  0  0  0  0  0  0
   19.0493   18.5062   22.4780 C   0  0  0  0  0  0  0  0  0  0  0  0
   19.4432   18.6708   21.4654 H   0  0  0  0  0  0  0  0  0  0  0  0
   18.0720   18.0191   22.3553 H   0  0  0  0  0  0  0  0  0  0  0  0
   19.9944   17.5613   23.2589 C   0  0  0  0  0  0  0  0  0  0  0  0
   20.9908   18.0147   23.3464 H   0  0  0  0  0  0  0  0  0  0  0  0
   19.6155   17.4256   24.2814 H   0  0  0  0  0  0  0  0  0  0  0  0
   20.1242   16.1833   22.5723 C   0  0  0  0  0  0  0  0  0  0  0  0
   20.5022   16.3131   21.5484 H   0  0  0  0  0  0  0  0  0  0  0  0
   19.1332   15.7158   22.4870 H   0  0  0  0  0  0  0  0  0  0  0  0
   21.0682   15.2423   23.3510 C   0  0  0  0  0  0  0  0  0  0  0  0
   22.0781   15.6668   23.4229 H   0  0  0  0  0  0  0  0  0  0  0  0
   21.1470   14.2696   22.8485 H   0  0  0  0  0  0  0  0  0  0  0  0
   20.6982   15.0661   24.3694 H   0  0  0  0  0  0  0  0  0  0  0  0
   21.2672   22.7882   23.9991 C   0  0  0  0  0  0  0  0  0  0  0  0
   21.6575   22.9215   22.9878 H   0  0  0  0  0  0  0  0  0  0  0  0
   21.1093   23.7634   24.4651 H   0  0  0  0  0  0  0  0  0  0  0  0
   21.9732   22.2050   24.5945 H   0  0  0  0  0  0  0  0  0  0  0  0
  1  2  1  0  0  0  0
  1  3  1  0  0  0  0
  1  4  1  0  0  0  0
  4  5  1  0  0  0  0
  4  6  1  0  0  0  0
  4  7  1  0  0  0  0
  7  8  1  0  0  0  0
  7  9  1  0  0  0  0
  7 10  1  0  0  0  0
 10 11  1  0  0  0  0
 10 12  1  0  0  0  0
 10 13  1  0  0  0  0
 13 14  1  0  0  0  0
 13 15  1  0  0  0  0
 13 16  1  0  0  0  0
 16 17  1  0  0  0  0
 16 18  1  0  0  0  0
 16 19  1  0  0  0  0
 19 20  1  0  0  0  0
 19 21  1  0  0  0  0
 19 22  1  0  0  0  0
  1 23  1  0  0  0  0
 23 24  1  0  0  0  0
 23 25  1  0  0  0  0
 23 26  1  0  0  0  0
M  END
> <VConfSearch Rank>
387

> <Conf_Id>
46

> <Delta U+W>
0.496

> <U+W>
22.338

> <U>
71.138

> <W>
-48.799

> <W(PB)>
-51.136

> <W(SA)>
2.337

> <Valence>
2.016

> <Coulomb>
68.932

> <VdW>
0.190

> <VdW6>
-5.902

> <VdW12>
6.092

> <Bond>
0.149

> <Angle>
0.477

> <Pdih>
1.390

> <Idih>
0.000

> <Tether>
0.000

$$$$
VeraChem MOL file


 26 25  0  0  0  0  0  0  0  0999 V2000     
   22.3423   20.2839   21.8585 N   0  3  0  0  0  0  0  0  0  0  0  0
   22.2658   21.2725   21.5729 H   0  0  0  0  0  0  0  0  0  0  0  0
   22.2493   19.7386   20.9875 H   0  0  0  0  0  0  0  0  0  0  0  0
   21.2254   19.9293   22.8194 C   0  0  0  0  0  0  0  0  0  0  0  0
   21.3537   20.5340   23.7207 H   0  0  0  0  0  0  0  0  0  0  0  0
   21.3413   18.8773   23.0905 H   0  0  0  0  0  0  0  0  0  0  0  0
   19.8200   20.1651   22.2330 C   0  0  0  0  0  0  0  0  0  0  0  0
   19.7316   21.2152   21.9242 H   0  0  0  0  0  0  0  0  0  0  0  0
   19.6917   19.5588   21.3264 H   0  0  0  0  0  0  0  0  0  0  0  0
   18.6906   19.8410   23.2393 C   0  0  0  0  0  0  0  0  0  0  0  0
   17.7273   20.1173   22.7884 H   0  0  0  0  0  0  0  0  0  0  0  0
   18.8058   20.4688   24.1339 H   0  0  0  0  0  0  0  0  0  0  0  0
   18.6511   18.3490   23.6496 C   0  0  0  0  0  0  0  0  0  0  0  0
   18.5695   17.7228   22.7504 H   0  0  0  0  0  0  0  0  0  0  0  0
   19.5901   18.0711   24.1467 H   0  0  0  0  0  0  0  0  0  0  0  0
   17.4685   18.0451   24.5962 C   0  0  0  0  0  0  0  0  0  0  0  0
   16.5218   18.3114   24.1055 H   0  0  0  0  0  0  0  0  0  0  0  0
   17.5446   18.6696   25.4974 H   0  0  0  0  0  0  0  0  0  0  0  0
   17.4311   16.5573   25.0061 C   0  0  0  0  0  0  0  0  0  0  0  0
   17.3212   15.9082   24.1276 H   0  0  0  0  0  0  0  0  0  0  0  0
   16.5848   16.3613   25.6773 H   0  0  0  0  0  0  0  0  0  0  0  0
   18.3510   16.2689   25.5313 H   0  0  0  0  0  0  0  0  0  0  0  0
   23.6915   20.0198   22.5126 C   0  0  0  0  0  0  0  0  0  0  0  0
   24.4868   20.2794   21.8104 H   0  0  0  0  0  0  0  0  0  0  0  0
   23.7801   20.6318   23.4129 H   0  0  0  0  0  0  0  0  0  0  0  0
   23.7623   18.9620   22.7755 H   0  0  0  0  0  0  0  0  0  0  0  0
  1  2  1  0  0  0  0
  1  3  1  0  0  0  0
  1  4  1  0  0  0  0
  4  5  1  0  0  0  0
  4  6  1  0  0  0  0
  4  7  1  0  0  0  0
  7  8  1  0  0  0  0
  7  9  1  0  0  0  0
  7 10  1  0  0  0  0
 10 11  1  0  0  0  0
 10 12  1  0  0  0  0
 10 13  1  0  0  0  0
 13 14  1  0  0  0  0
 13 15  1  0  0  0  0
 13 16  1  0  0  0  0
 16 17  1  0  0  0  0
 16 18  1  0  0  0  0
 16 19  1  0  0  0  0
 19 20  1  0  0  0  0
 19 21  1  0  0  0  0
 19 22  1  0  0  0  0
  1 23  1  0  0  0  0
 23 24  1  0  0  0  0
 23 25  1  0  0  0  0
 23 26  1  0  0  0  0
M  END
> <VConfSearch Rank>
388

> <Conf_Id>
45

> <Delta U+W>
0.471

> <U+W>
22.313

> <U>
71.138

> <W>
-48.825

> <W(PB)>
-51.169

> <W(SA)>
2.344

> <Valence>
2.016

> <Coulomb>
68.932

> <VdW>
0.190

> <VdW6>
-5.902

> <VdW12>
6.092

> <Bond>
0.149

> <Angle>
0.477

> <Pdih>
1.390

> <Idih>
0.000

> <Tether>
0.000

$$$$
VeraChem MOL file


 26 25  0  0  0  0  0  0  0  0999 V2000     
   19.7987   16.6235   22.5263 N   0  3  0  0  0  0  0  0  0  0  0  0
   20.5629   17.0441   21.9765 H   0  0  0  0  0  0  0  0  0  0  0  0
   18.9266   16.9338   22.0705 H   0  0  0  0  0  0  0  0  0  0  0  0
   19.8479   17.1268   23.9560 C   0  0  0  0  0  0  0  0  0  0  0  0
   20.7866   16.7872   24.4010 H   0  0  0  0  0  0  0  0  0  0  0  0
   19.0235   16.6581   24.4994 H   0  0  0  0  0  0  0  0  0  0  0  0
   19.7383   18.6590   24.0828 C   0  0  0  0  0  0  0  0  0  0  0  0
   18.7925   18.9892   23.6351 H   0  0  0  0  0  0  0  0  0  0  0  0
   19.6888   18.9162   25.1492 H   0  0  0  0  0  0  0  0  0  0  0  0
   20.9348   19.3970   23.4315 C   0  0  0  0  0  0  0  0  0  0  0  0
   20.9430   19.2205   22.3476 H   0  0  0  0  0  0  0  0  0  0  0  0
   21.8706   18.9727   23.8214 H   0  0  0  0  0  0  0  0  0  0  0  0
   20.9387   20.9222   23.6999 C   0  0  0  0  0  0  0  0  0  0  0  0
   20.9551   21.1060   24.7830 H   0  0  0  0  0  0  0  0  0  0  0  0
   21.8727   21.3434   23.3026 H   0  0  0  0  0  0  0  0  0  0  0  0
   19.7408   21.6657   23.0626 C   0  0  0  0  0  0  0  0  0  0  0  0
   18.7981   21.3130   23.5016 H   0  0  0  0  0  0  0  0  0  0  0  0
   19.6947   21.4428   21.9874 H   0  0  0  0  0  0  0  0  0  0  0  0
   19.8460   23.1926   23.2638 C   0  0  0  0  0  0  0  0  0  0  0  0
   19.8638   23.4497   24.3310 H   0  0  0  0  0  0  0  0  0  0  0  0
   18.9878   23.7038   22.8087 H   0  0  0  0  0  0  0  0  0  0  0  0
   20.7585   23.5905   22.8011 H   0  0  0  0  0  0  0  0  0  0  0  0
   19.9009   15.1047   22.5074 C   0  0  0  0  0  0  0  0  0  0  0  0
   19.0649   14.6816   23.0687 H   0  0  0  0  0  0  0  0  0  0  0  0
   19.8648   14.7560   21.4729 H   0  0  0  0  0  0  0  0  0  0  0  0
   20.8451   14.8026   22.9659 H   0  0  0  0  0  0  0  0  0  0  0  0
  1  2  1  0  0  0  0
  1  3  1  0  0  0  0
  1  4  1  0  0  0  0
  4  5  1  0  0  0  0
  4  6  1  0  0  0  0
  4  7  1  0  0  0  0
  7  8  1  0  0  0  0
  7  9  1  0  0  0  0
  7 10  1  0  0  0  0
 10 11  1  0  0  0  0
 10 12  1  0  0  0  0
 10 13  1  0  0  0  0
 13 14  1  0  0  0  0
 13 15  1  0  0  0  0
 13 16  1  0  0  0  0
 16 17  1  0  0  0  0
 16 18  1  0  0  0  0
 16 19  1  0  0  0  0
 19 20  1  0  0  0  0
 19 21  1  0  0  0  0
 19 22  1  0  0  0  0
  1 23  1  0  0  0  0
 23 24  1  0  0  0  0
 23 25  1  0  0  0  0
 23 26  1  0  0  0  0
M  END
> <VConfSearch Rank>
389

> <Conf_Id>
143

> <Delta U+W>
0.915

> <U+W>
22.757

> <U>
71.994

> <W>
-49.237

> <W(PB)>
-51.537

> <W(SA)>
2.300

> <Valence>
2.376

> <Coulomb>
69.315

> <VdW>
0.303

> <VdW6>
-6.508

> <VdW12>
6.810

> <Bond>
0.182

> <Angle>
0.660

> <Pdih>
1.534

> <Idih>
0.000

> <Tether>
0.000

$$$$
VeraChem MOL file


 26 25  0  0  0  0  0  0  0  0999 V2000     
   17.4888   18.6752   22.7844 N   0  3  0  0  0  0  0  0  0  0  0  0
   17.6482   17.9068   23.4531 H   0  0  0  0  0  0  0  0  0  0  0  0
   17.6909   18.2781   21.8538 H   0  0  0  0  0  0  0  0  0  0  0  0
   18.4327   19.8258   23.0768 C   0  0  0  0  0  0  0  0  0  0  0  0
   18.1962   20.2130   24.0711 H   0  0  0  0  0  0  0  0  0  0  0  0
   18.2266   20.6125   22.3466 H   0  0  0  0  0  0  0  0  0  0  0  0
   19.9253   19.4463   23.0091 C   0  0  0  0  0  0  0  0  0  0  0  0
   20.1540   19.0295   22.0193 H   0  0  0  0  0  0  0  0  0  0  0  0
   20.5099   20.3688   23.1108 H   0  0  0  0  0  0  0  0  0  0  0  0
   20.3405   18.4491   24.1184 C   0  0  0  0  0  0  0  0  0  0  0  0
   19.6849   17.5692   24.0839 H   0  0  0  0  0  0  0  0  0  0  0  0
   20.1790   18.9116   25.1020 H   0  0  0  0  0  0  0  0  0  0  0  0
   21.8068   17.9542   24.0172 C   0  0  0  0  0  0  0  0  0  0  0  0
   21.9656   17.2260   24.8247 H   0  0  0  0  0  0  0  0  0  0  0  0
   21.9530   17.3945   23.0831 H   0  0  0  0  0  0  0  0  0  0  0  0
   22.8816   19.0640   24.1515 C   0  0  0  0  0  0  0  0  0  0  0  0
   23.7446   18.6516   24.6929 H   0  0  0  0  0  0  0  0  0  0  0  0
   22.5040   19.8894   24.7709 H   0  0  0  0  0  0  0  0  0  0  0  0
   23.3854   19.5990   22.7904 C   0  0  0  0  0  0  0  0  0  0  0  0
   22.5800   20.0472   22.1984 H   0  0  0  0  0  0  0  0  0  0  0  0
   23.8335   18.7932   22.1946 H   0  0  0  0  0  0  0  0  0  0  0  0
   24.1544   20.3677   22.9409 H   0  0  0  0  0  0  0  0  0  0  0  0
   16.0464   19.1564   22.8589 C   0  0  0  0  0  0  0  0  0  0  0  0
   15.8931   19.9468   22.1209 H   0  0  0  0  0  0  0  0  0  0  0  0
   15.3779   18.3190   22.6468 H   0  0  0  0  0  0  0  0  0  0  0  0
   15.8479   19.5423   23.8612 H   0  0  0  0  0  0  0  0  0  0  0  0
  1  2  1  0  0  0  0
  1  3  1  0  0  0  0
  1  4  1  0  0  0  0
  4  5  1  0  0  0  0
  4  6  1  0  0  0  0
  4  7  1  0  0  0  0
  7  8  1  0  0  0  0
  7  9  1  0  0  0  0
  7 10  1  0  0  0  0
 10 11  1  0  0  0  0
 10 12  1  0  0  0  0
 10 13  1  0  0  0  0
 13 14  1  0  0  0  0
 13 15  1  0  0  0  0
 13 16  1  0  0  0  0
 16 17  1  0  0  0  0
 16 18  1  0  0  0  0
 16 19  1  0  0  0  0
 19 20  1  0  0  0  0
 19 21  1  0  0  0  0
 19 22  1  0  0  0  0
  1 23  1  0  0  0  0
 23 24  1  0  0  0  0
 23 25  1  0  0  0  0
 23 26  1  0  0  0  0
M  END
> <VConfSearch Rank>
390

> <Conf_Id>
76

> <Delta U+W>
3.468

> <U+W>
25.310

> <U>
74.594

> <W>
-49.283

> <W(PB)>
-51.537

> <W(SA)>
2.253

> <Valence>
4.886

> <Coulomb>
69.332

> <VdW>
0.376

> <VdW6>
-7.329

> <VdW12>
7.705

> <Bond>
0.232

> <Angle>
1.251

> <Pdih>
3.403

> <Idih>
0.000

> <Tether>
0.000

$$$$
VeraChem MOL file


 26 25  0  0  0  0  0  0  0  0999 V2000     
   20.4116   16.7697   24.8601 N   0  3  0  0  0  0  0  0  0  0  0  0
   21.3662   16.7491   24.4690 H   0  0  0  0  0  0  0  0  0  0  0  0
   19.8744   16.0815   24.3099 H   0  0  0  0  0  0  0  0  0  0  0  0
   19.8100   18.1515   24.6998 C   0  0  0  0  0  0  0  0  0  0  0  0
   20.4101   18.8488   25.2897 H   0  0  0  0  0  0  0  0  0  0  0  0
   18.8002   18.1279   25.1170 H   0  0  0  0  0  0  0  0  0  0  0  0
   19.7549   18.6259   23.2363 C   0  0  0  0  0  0  0  0  0  0  0  0
   20.7677   18.6221   22.8183 H   0  0  0  0  0  0  0  0  0  0  0  0
   19.1649   17.9122   22.6460 H   0  0  0  0  0  0  0  0  0  0  0  0
   19.1239   20.0348   23.1247 C   0  0  0  0  0  0  0  0  0  0  0  0
   19.6685   20.7498   23.7569 H   0  0  0  0  0  0  0  0  0  0  0  0
   18.1046   19.9850   23.5325 H   0  0  0  0  0  0  0  0  0  0  0  0
   19.0445   20.5642   21.6687 C   0  0  0  0  0  0  0  0  0  0  0  0
   18.9379   19.7282   20.9637 H   0  0  0  0  0  0  0  0  0  0  0  0
   18.1225   21.1536   21.5692 H   0  0  0  0  0  0  0  0  0  0  0  0
   20.2260   21.4731   21.2427 C   0  0  0  0  0  0  0  0  0  0  0  0
   20.2596   22.3611   21.8894 H   0  0  0  0  0  0  0  0  0  0  0  0
   20.0304   21.8448   20.2271 H   0  0  0  0  0  0  0  0  0  0  0  0
   21.6044   20.7766   21.2575 C   0  0  0  0  0  0  0  0  0  0  0  0
   21.5857   19.8475   20.6733 H   0  0  0  0  0  0  0  0  0  0  0  0
   21.9213   20.5413   22.2809 H   0  0  0  0  0  0  0  0  0  0  0  0
   22.3694   21.4318   20.8212 H   0  0  0  0  0  0  0  0  0  0  0  0
   20.4291   16.3799   26.3317 C   0  0  0  0  0  0  0  0  0  0  0  0
   21.0298   17.1031   26.8876 H   0  0  0  0  0  0  0  0  0  0  0  0
   19.4061   16.3764   26.7144 H   0  0  0  0  0  0  0  0  0  0  0  0
   20.8643   15.3832   26.4331 H   0  0  0  0  0  0  0  0  0  0  0  0
  1  2  1  0  0  0  0
  1  3  1  0  0  0  0
  1  4  1  0  0  0  0
  4  5  1  0  0  0  0
  4  6  1  0  0  0  0
  4  7  1  0  0  0  0
  7  8  1  0  0  0  0
  7  9  1  0  0  0  0
  7 10  1  0  0  0  0
 10 11  1  0  0  0  0
 10 12  1  0  0  0  0
 10 13  1  0  0  0  0
 13 14  1  0  0  0  0
 13 15  1  0  0  0  0
 13 16  1  0  0  0  0
 16 17  1  0  0  0  0
 16 18  1  0  0  0  0
 16 19  1  0  0  0  0
 19 20  1  0  0  0  0
 19 21  1  0  0  0  0
 19 22  1  0  0  0  0
  1 23  1  0  0  0  0
 23 24  1  0  0  0  0
 23 25  1  0  0  0  0
 23 26  1  0  0  0  0
M  END
> <VConfSearch Rank>
391

> <Conf_Id>
123

> <Delta U+W>
3.101

> <U+W>
24.943

> <U>
74.070

> <W>
-49.127

> <W(PB)>
-51.421

> <W(SA)>
2.295

> <Valence>
4.690

> <Coulomb>
69.115

> <VdW>
0.266

> <VdW6>
-6.809

> <VdW12>
7.075

> <Bond>
0.212

> <Angle>
1.133

> <Pdih>
3.345

> <Idih>
0.000

> <Tether>
0.000

$$$$
VeraChem MOL file


 26 25  0  0  0  0  0  0  0  0999 V2000     
   20.5480   17.1302   25.0069 N   0  3  0  0  0  0  0  0  0  0  0  0
   19.5977   16.8533   25.2982 H   0  0  0  0  0  0  0  0  0  0  0  0
   20.7675   17.9786   25.5502 H   0  0  0  0  0  0  0  0  0  0  0  0
   20.5686   17.4424   23.5229 C   0  0  0  0  0  0  0  0  0  0  0  0
   20.3324   16.5185   22.9889 H   0  0  0  0  0  0  0  0  0  0  0  0
   21.5853   17.7407   23.2551 H   0  0  0  0  0  0  0  0  0  0  0  0
   19.5769   18.5441   23.1003 C   0  0  0  0  0  0  0  0  0  0  0  0
   19.5897   18.6148   22.0069 H   0  0  0  0  0  0  0  0  0  0  0  0
   18.5578   18.2428   23.3766 H   0  0  0  0  0  0  0  0  0  0  0  0
   19.9089   19.9207   23.7312 C   0  0  0  0  0  0  0  0  0  0  0  0
   20.9582   20.1857   23.5409 H   0  0  0  0  0  0  0  0  0  0  0  0
   19.8085   19.8387   24.8217 H   0  0  0  0  0  0  0  0  0  0  0  0
   18.9766   21.0612   23.2450 C   0  0  0  0  0  0  0  0  0  0  0  0
   17.9872   20.6606   22.9842 H   0  0  0  0  0  0  0  0  0  0  0  0
   18.8051   21.7457   24.0873 H   0  0  0  0  0  0  0  0  0  0  0  0
   19.5386   21.9014   22.0696 C   0  0  0  0  0  0  0  0  0  0  0  0
   20.4783   22.3817   22.3764 H   0  0  0  0  0  0  0  0  0  0  0  0
   18.8351   22.7188   21.8579 H   0  0  0  0  0  0  0  0  0  0  0  0
   19.7734   21.1015   20.7694 C   0  0  0  0  0  0  0  0  0  0  0  0
   18.8668   20.5618   20.4667 H   0  0  0  0  0  0  0  0  0  0  0  0
   20.5891   20.3778   20.8879 H   0  0  0  0  0  0  0  0  0  0  0  0
   20.0514   21.7761   19.9493 H   0  0  0  0  0  0  0  0  0  0  0  0
   21.5466   16.0241   25.3179 C   0  0  0  0  0  0  0  0  0  0  0  0
   22.5477   16.3529   25.0305 H   0  0  0  0  0  0  0  0  0  0  0  0
   21.5219   15.8098   26.3887 H   0  0  0  0  0  0  0  0  0  0  0  0
   21.2758   15.1276   24.7560 H   0  0  0  0  0  0  0  0  0  0  0  0
  1  2  1  0  0  0  0
  1  3  1  0  0  0  0
  1  4  1  0  0  0  0
  4  5  1  0  0  0  0
  4  6  1  0  0  0  0
  4  7  1  0  0  0  0
  7  8  1  0  0  0  0
  7  9  1  0  0  0  0
  7 10  1  0  0  0  0
 10 11  1  0  0  0  0
 10 12  1  0  0  0  0
 10 13  1  0  0  0  0
 13 14  1  0  0  0  0
 13 15  1  0  0  0  0
 13 16  1  0  0  0  0
 16 17  1  0  0  0  0
 16 18  1  0  0  0  0
 16 19  1  0  0  0  0
 19 20  1  0  0  0  0
 19 21  1  0  0  0  0
 19 22  1  0  0  0  0
  1 23  1  0  0  0  0
 23 24  1  0  0  0  0
 23 25  1  0  0  0  0
 23 26  1  0  0  0  0
M  END
> <VConfSearch Rank>
392

> <Conf_Id>
111

> <Delta U+W>
3.383

> <U+W>
25.225

> <U>
74.516

> <W>
-49.292

> <W(PB)>
-51.558

> <W(SA)>
2.266

> <Valence>
4.842

> <Coulomb>
69.333

> <VdW>
0.342

> <VdW6>
-7.369

> <VdW12>
7.711

> <Bond>
0.232

> <Angle>
1.153

> <Pdih>
3.457

> <Idih>
0.000

> <Tether>
0.000

$$$$
VeraChem MOL file


 26 25  0  0  0  0  0  0  0  0999 V2000     
   18.4962   19.1637   25.1197 N   0  3  0  0  0  0  0  0  0  0  0  0
   18.3408   20.0938   25.5386 H   0  0  0  0  0  0  0  0  0  0  0  0
   19.5060   18.9805   25.2185 H   0  0  0  0  0  0  0  0  0  0  0  0
   18.1146   19.1823   23.6525 C   0  0  0  0  0  0  0  0  0  0  0  0
   17.0433   19.3902   23.5916 H   0  0  0  0  0  0  0  0  0  0  0  0
   18.2892   18.1832   23.2465 H   0  0  0  0  0  0  0  0  0  0  0  0
   18.8867   20.2268   22.8198 C   0  0  0  0  0  0  0  0  0  0  0  0
   18.5127   20.1998   21.7877 H   0  0  0  0  0  0  0  0  0  0  0  0
   18.6565   21.2304   23.2015 H   0  0  0  0  0  0  0  0  0  0  0  0
   20.4231   20.0228   22.8114 C   0  0  0  0  0  0  0  0  0  0  0  0
   20.8214   20.1346   23.8285 H   0  0  0  0  0  0  0  0  0  0  0  0
   20.8696   20.8316   22.2186 H   0  0  0  0  0  0  0  0  0  0  0  0
   20.8539   18.6532   22.2269 C   0  0  0  0  0  0  0  0  0  0  0  0
   20.3890   17.8434   22.8045 H   0  0  0  0  0  0  0  0  0  0  0  0
   20.4782   18.5545   21.1992 H   0  0  0  0  0  0  0  0  0  0  0  0
   22.3862   18.4324   22.2395 C   0  0  0  0  0  0  0  0  0  0  0  0
   22.5955   17.4018   21.9202 H   0  0  0  0  0  0  0  0  0  0  0  0
   22.7663   18.5181   23.2671 H   0  0  0  0  0  0  0  0  0  0  0  0
   23.1574   19.4038   21.3168 C   0  0  0  0  0  0  0  0  0  0  0  0
   23.0843   20.4400   21.6691 H   0  0  0  0  0  0  0  0  0  0  0  0
   22.7737   19.3613   20.2892 H   0  0  0  0  0  0  0  0  0  0  0  0
   24.2228   19.1409   21.2877 H   0  0  0  0  0  0  0  0  0  0  0  0
   17.6863   18.1038   25.8531 C   0  0  0  0  0  0  0  0  0  0  0  0
   17.9717   18.1006   26.9074 H   0  0  0  0  0  0  0  0  0  0  0  0
   16.6232   18.3359   25.7595 H   0  0  0  0  0  0  0  0  0  0  0  0
   17.8919   17.1259   25.4122 H   0  0  0  0  0  0  0  0  0  0  0  0
  1  2  1  0  0  0  0
  1  3  1  0  0  0  0
  1  4  1  0  0  0  0
  4  5  1  0  0  0  0
  4  6  1  0  0  0  0
  4  7  1  0  0  0  0
  7  8  1  0  0  0  0
  7  9  1  0  0  0  0
  7 10  1  0  0  0  0
 10 11  1  0  0  0  0
 10 12  1  0  0  0  0
 10 13  1  0  0  0  0
 13 14  1  0  0  0  0
 13 15  1  0  0  0  0
 13 16  1  0  0  0  0
 16 17  1  0  0  0  0
 16 18  1  0  0  0  0
 16 19  1  0  0  0  0
 19 20  1  0  0  0  0
 19 21  1  0  0  0  0
 19 22  1  0  0  0  0
  1 23  1  0  0  0  0
 23 24  1  0  0  0  0
 23 25  1  0  0  0  0
 23 26  1  0  0  0  0
M  END
> <VConfSearch Rank>
393

> <Conf_Id>
126

> <Delta U+W>
1.519

> <U+W>
23.361

> <U>
72.579

> <W>
-49.218

> <W(PB)>
-51.496

> <W(SA)>
2.279

> <Valence>
2.678

> <Coulomb>
69.622

> <VdW>
0.279

> <VdW6>
-7.328

> <VdW12>
7.608

> <Bond>
0.212

> <Angle>
0.911

> <Pdih>
1.555

> <Idih>
0.000

> <Tether>
0.000

$$$$
VeraChem MOL file


 26 25  0  0  0  0  0  0  0  0999 V2000     
   17.7026   18.8612   22.9192 N   0  3  0  0  0  0  0  0  0  0  0  0
   18.1257   19.6751   23.3899 H   0  0  0  0  0  0  0  0  0  0  0  0
   17.2006   18.3439   23.6575 H   0  0  0  0  0  0  0  0  0  0  0  0
   18.7874   17.9897   22.3173 C   0  0  0  0  0  0  0  0  0  0  0  0
   19.2922   18.5687   21.5405 H   0  0  0  0  0  0  0  0  0  0  0  0
   18.2995   17.1359   21.8402 H   0  0  0  0  0  0  0  0  0  0  0  0
   19.8205   17.4806   23.3440 C   0  0  0  0  0  0  0  0  0  0  0  0
   19.3092   16.8524   24.0854 H   0  0  0  0  0  0  0  0  0  0  0  0
   20.5344   16.8244   22.8285 H   0  0  0  0  0  0  0  0  0  0  0  0
   20.5970   18.6052   24.0749 C   0  0  0  0  0  0  0  0  0  0  0  0
   21.2774   18.1344   24.7963 H   0  0  0  0  0  0  0  0  0  0  0  0
   19.9025   19.2172   24.6655 H   0  0  0  0  0  0  0  0  0  0  0  0
   21.4076   19.5118   23.1136 C   0  0  0  0  0  0  0  0  0  0  0  0
   22.1219   18.9018   22.5436 H   0  0  0  0  0  0  0  0  0  0  0  0
   20.7316   19.9648   22.3766 H   0  0  0  0  0  0  0  0  0  0  0  0
   22.1647   20.6534   23.8350 C   0  0  0  0  0  0  0  0  0  0  0  0
   21.4537   21.2746   24.3974 H   0  0  0  0  0  0  0  0  0  0  0  0
   22.6138   21.3110   23.0775 H   0  0  0  0  0  0  0  0  0  0  0  0
   23.2800   20.1529   24.7812 C   0  0  0  0  0  0  0  0  0  0  0  0
   23.9864   19.5019   24.2500 H   0  0  0  0  0  0  0  0  0  0  0  0
   22.8689   19.5941   25.6309 H   0  0  0  0  0  0  0  0  0  0  0  0
   23.8466   21.0003   25.1885 H   0  0  0  0  0  0  0  0  0  0  0  0
   16.7382   19.3141   21.8320 C   0  0  0  0  0  0  0  0  0  0  0  0
   17.2871   19.8853   21.0801 H   0  0  0  0  0  0  0  0  0  0  0  0
   16.2811   18.4367   21.3694 H   0  0  0  0  0  0  0  0  0  0  0  0
   15.9634   19.9412   22.2789 H   0  0  0  0  0  0  0  0  0  0  0  0
  1  2  1  0  0  0  0
  1  3  1  0  0  0  0
  1  4  1  0  0  0  0
  4  5  1  0  0  0  0
  4  6  1  0  0  0  0
  4  7  1  0  0  0  0
  7  8  1  0  0  0  0
  7  9  1  0  0  0  0
  7 10  1  0  0  0  0
 10 11  1  0  0  0  0
 10 12  1  0  0  0  0
 10 13  1  0  0  0  0
 13 14  1  0  0  0  0
 13 15  1  0  0  0  0
 13 16  1  0  0  0  0
 16 17  1  0  0  0  0
 16 18  1  0  0  0  0
 16 19  1  0  0  0  0
 19 20  1  0  0  0  0
 19 21  1  0  0  0  0
 19 22  1  0  0  0  0
  1 23  1  0  0  0  0
 23 24  1  0  0  0  0
 23 25  1  0  0  0  0
 23 26  1  0  0  0  0
M  END
> <VConfSearch Rank>
394

> <Conf_Id>
134

> <Delta U+W>
1.464

> <U+W>
23.306

> <U>
72.579

> <W>
-49.273

> <W(PB)>
-51.540

> <W(SA)>
2.267

> <Valence>
2.677

> <Coulomb>
69.622

> <VdW>
0.280

> <VdW6>
-7.328

> <VdW12>
7.608

> <Bond>
0.212

> <Angle>
0.911

> <Pdih>
1.555

> <Idih>
0.000

> <Tether>
0.000

$$$$
VeraChem MOL file


 26 25  0  0  0  0  0  0  0  0999 V2000     
   20.4783   21.7847   23.9571 N   0  3  0  0  0  0  0  0  0  0  0  0
   20.1583   21.5222   24.9023 H   0  0  0  0  0  0  0  0  0  0  0  0
   19.6571   22.2068   23.4964 H   0  0  0  0  0  0  0  0  0  0  0  0
   20.9291   20.5537   23.1966 C   0  0  0  0  0  0  0  0  0  0  0  0
   21.7921   20.1339   23.7194 H   0  0  0  0  0  0  0  0  0  0  0  0
   21.2508   20.8732   22.2022 H   0  0  0  0  0  0  0  0  0  0  0  0
   19.8312   19.4825   23.0665 C   0  0  0  0  0  0  0  0  0  0  0  0
   19.5035   19.1830   24.0700 H   0  0  0  0  0  0  0  0  0  0  0  0
   18.9599   19.9125   22.5549 H   0  0  0  0  0  0  0  0  0  0  0  0
   20.3383   18.2488   22.2834 C   0  0  0  0  0  0  0  0  0  0  0  0
   21.1853   17.7941   22.8143 H   0  0  0  0  0  0  0  0  0  0  0  0
   20.7340   18.5802   21.3132 H   0  0  0  0  0  0  0  0  0  0  0  0
   19.2415   17.1833   22.0249 C   0  0  0  0  0  0  0  0  0  0  0  0
   18.4556   17.6246   21.3964 H   0  0  0  0  0  0  0  0  0  0  0  0
   19.6763   16.3670   21.4318 H   0  0  0  0  0  0  0  0  0  0  0  0
   18.5865   16.5844   23.2959 C   0  0  0  0  0  0  0  0  0  0  0  0
   17.8315   15.8484   22.9861 H   0  0  0  0  0  0  0  0  0  0  0  0
   18.0383   17.3626   23.8437 H   0  0  0  0  0  0  0  0  0  0  0  0
   19.5957   15.8934   24.2409 C   0  0  0  0  0  0  0  0  0  0  0  0
   20.1698   15.1230   23.7100 H   0  0  0  0  0  0  0  0  0  0  0  0
   19.0717   15.4072   25.0740 H   0  0  0  0  0  0  0  0  0  0  0  0
   20.3023   16.6139   24.6713 H   0  0  0  0  0  0  0  0  0  0  0  0
   21.6193   22.7893   24.0395 C   0  0  0  0  0  0  0  0  0  0  0  0
   21.9183   23.0769   23.0292 H   0  0  0  0  0  0  0  0  0  0  0  0
   21.2816   23.6707   24.5893 H   0  0  0  0  0  0  0  0  0  0  0  0
   22.4639   22.3316   24.5593 H   0  0  0  0  0  0  0  0  0  0  0  0
  1  2  1  0  0  0  0
  1  3  1  0  0  0  0
  1  4  1  0  0  0  0
  4  5  1  0  0  0  0
  4  6  1  0  0  0  0
  4  7  1  0  0  0  0
  7  8  1  0  0  0  0
  7  9  1  0  0  0  0
  7 10  1  0  0  0  0
 10 11  1  0  0  0  0
 10 12  1  0  0  0  0
 10 13  1  0  0  0  0
 13 14  1  0  0  0  0
 13 15  1  0  0  0  0
 13 16  1  0  0  0  0
 16 17  1  0  0  0  0
 16 18  1  0  0  0  0
 16 19  1  0  0  0  0
 19 20  1  0  0  0  0
 19 21  1  0  0  0  0
 19 22  1  0  0  0  0
  1 23  1  0  0  0  0
 23 24  1  0  0  0  0
 23 25  1  0  0  0  0
 23 26  1  0  0  0  0
M  END
> <VConfSearch Rank>
395

> <Conf_Id>
30

> <Delta U+W>
0.910

> <U+W>
22.752

> <U>
71.870

> <W>
-49.118

> <W(PB)>
-51.409

> <W(SA)>
2.290

> <Valence>
2.682

> <Coulomb>
68.933

> <VdW>
0.255

> <VdW6>
-6.833

> <VdW12>
7.088

> <Bond>
0.205

> <Angle>
1.003

> <Pdih>
1.473

> <Idih>
0.000

> <Tether>
0.000

$$$$
VeraChem MOL file


 26 25  0  0  0  0  0  0  0  0999 V2000     
   19.9816   20.8715   25.4607 N   0  3  0  0  0  0  0  0  0  0  0  0
   20.7036   21.5421   25.1545 H   0  0  0  0  0  0  0  0  0  0  0  0
   20.4906   20.1353   25.9743 H   0  0  0  0  0  0  0  0  0  0  0  0
   19.2757   20.2779   24.2582 C   0  0  0  0  0  0  0  0  0  0  0  0
   18.7581   21.0887   23.7394 H   0  0  0  0  0  0  0  0  0  0  0  0
   18.5276   19.5701   24.6240 H   0  0  0  0  0  0  0  0  0  0  0  0
   20.2297   19.5648   23.2828 C   0  0  0  0  0  0  0  0  0  0  0  0
   20.9892   20.2750   22.9298 H   0  0  0  0  0  0  0  0  0  0  0  0
   20.7568   18.7655   23.8188 H   0  0  0  0  0  0  0  0  0  0  0  0
   19.4637   18.9779   22.0740 C   0  0  0  0  0  0  0  0  0  0  0  0
   18.8808   19.7789   21.5982 H   0  0  0  0  0  0  0  0  0  0  0  0
   18.7304   18.2384   22.4223 H   0  0  0  0  0  0  0  0  0  0  0  0
   20.3875   18.3437   21.0018 C   0  0  0  0  0  0  0  0  0  0  0  0
   19.7670   17.9913   20.1663 H   0  0  0  0  0  0  0  0  0  0  0  0
   21.0379   19.1243   20.5837 H   0  0  0  0  0  0  0  0  0  0  0  0
   21.2712   17.1708   21.4983 C   0  0  0  0  0  0  0  0  0  0  0  0
   21.9882   17.5268   22.2501 H   0  0  0  0  0  0  0  0  0  0  0  0
   21.8764   16.8084   20.6556 H   0  0  0  0  0  0  0  0  0  0  0  0
   20.4583   15.9877   22.0715 C   0  0  0  0  0  0  0  0  0  0  0  0
   19.9267   16.2713   22.9883 H   0  0  0  0  0  0  0  0  0  0  0  0
   21.1223   15.1499   22.3208 H   0  0  0  0  0  0  0  0  0  0  0  0
   19.7206   15.6262   21.3435 H   0  0  0  0  0  0  0  0  0  0  0  0
   18.9697   21.5547   26.3702 C   0  0  0  0  0  0  0  0  0  0  0  0
   19.4909   21.9778   27.2319 H   0  0  0  0  0  0  0  0  0  0  0  0
   18.4679   22.3505   25.8154 H   0  0  0  0  0  0  0  0  0  0  0  0
   18.2360   20.8193   26.7076 H   0  0  0  0  0  0  0  0  0  0  0  0
  1  2  1  0  0  0  0
  1  3  1  0  0  0  0
  1  4  1  0  0  0  0
  4  5  1  0  0  0  0
  4  6  1  0  0  0  0
  4  7  1  0  0  0  0
  7  8  1  0  0  0  0
  7  9  1  0  0  0  0
  7 10  1  0  0  0  0
 10 11  1  0  0  0  0
 10 12  1  0  0  0  0
 10 13  1  0  0  0  0
 13 14  1  0  0  0  0
 13 15  1  0  0  0  0
 13 16  1  0  0  0  0
 16 17  1  0  0  0  0
 16 18  1  0  0  0  0
 16 19  1  0  0  0  0
 19 20  1  0  0  0  0
 19 21  1  0  0  0  0
 19 22  1  0  0  0  0
  1 23  1  0  0  0  0
 23 24  1  0  0  0  0
 23 25  1  0  0  0  0
 23 26  1  0  0  0  0
M  END
> <VConfSearch Rank>
396

> <Conf_Id>
29

> <Delta U+W>
0.886

> <U+W>
22.729

> <U>
71.870

> <W>
-49.141

> <W(PB)>
-51.404

> <W(SA)>
2.262

> <Valence>
2.682

> <Coulomb>
68.933

> <VdW>
0.255

> <VdW6>
-6.833

> <VdW12>
7.088

> <Bond>
0.205

> <Angle>
1.003

> <Pdih>
1.473

> <Idih>
0.000

> <Tether>
0.000

$$$$
VeraChem MOL file


 26 25  0  0  0  0  0  0  0  0999 V2000     
   18.7267   20.3041   21.3409 N   0  3  0  0  0  0  0  0  0  0  0  0
   19.2682   21.0150   20.8250 H   0  0  0  0  0  0  0  0  0  0  0  0
   18.2370   20.8206   22.0879 H   0  0  0  0  0  0  0  0  0  0  0  0
   19.6589   19.2721   21.9426 C   0  0  0  0  0  0  0  0  0  0  0  0
   20.1657   18.7581   21.1220 H   0  0  0  0  0  0  0  0  0  0  0  0
   19.0472   18.5437   22.4803 H   0  0  0  0  0  0  0  0  0  0  0  0
   20.7040   19.8784   22.8982 C   0  0  0  0  0  0  0  0  0  0  0  0
   21.2895   20.6342   22.3581 H   0  0  0  0  0  0  0  0  0  0  0  0
   20.1961   20.4077   23.7146 H   0  0  0  0  0  0  0  0  0  0  0  0
   21.6713   18.8161   23.4770 C   0  0  0  0  0  0  0  0  0  0  0  0
   22.3996   19.3125   24.1320 H   0  0  0  0  0  0  0  0  0  0  0  0
   22.2590   18.3858   22.6543 H   0  0  0  0  0  0  0  0  0  0  0  0
   20.9817   17.6594   24.2500 C   0  0  0  0  0  0  0  0  0  0  0  0
   20.3818   17.0604   23.5517 H   0  0  0  0  0  0  0  0  0  0  0  0
   21.7574   16.9800   24.6293 H   0  0  0  0  0  0  0  0  0  0  0  0
   20.0822   18.1006   25.4327 C   0  0  0  0  0  0  0  0  0  0  0  0
   19.6424   17.2041   25.8915 H   0  0  0  0  0  0  0  0  0  0  0  0
   19.2354   18.6955   25.0648 H   0  0  0  0  0  0  0  0  0  0  0  0
   20.8435   18.8929   26.5197 C   0  0  0  0  0  0  0  0  0  0  0  0
   20.1853   19.1072   27.3715 H   0  0  0  0  0  0  0  0  0  0  0  0
   21.2101   19.8530   26.1357 H   0  0  0  0  0  0  0  0  0  0  0  0
   21.7028   18.3221   26.8948 H   0  0  0  0  0  0  0  0  0  0  0  0
   17.7257   19.6222   20.4186 C   0  0  0  0  0  0  0  0  0  0  0  0
   17.0607   20.3762   19.9916 H   0  0  0  0  0  0  0  0  0  0  0  0
   18.2652   19.1106   19.6185 H   0  0  0  0  0  0  0  0  0  0  0  0
   17.1427   18.8990   20.9932 H   0  0  0  0  0  0  0  0  0  0  0  0
  1  2  1  0  0  0  0
  1  3  1  0  0  0  0
  1  4  1  0  0  0  0
  4  5  1  0  0  0  0
  4  6  1  0  0  0  0
  4  7  1  0  0  0  0
  7  8  1  0  0  0  0
  7  9  1  0  0  0  0
  7 10  1  0  0  0  0
 10 11  1  0  0  0  0
 10 12  1  0  0  0  0
 10 13  1  0  0  0  0
 13 14  1  0  0  0  0
 13 15  1  0  0  0  0
 13 16  1  0  0  0  0
 16 17  1  0  0  0  0
 16 18  1  0  0  0  0
 16 19  1  0  0  0  0
 19 20  1  0  0  0  0
 19 21  1  0  0  0  0
 19 22  1  0  0  0  0
  1 23  1  0  0  0  0
 23 24  1  0  0  0  0
 23 25  1  0  0  0  0
 23 26  1  0  0  0  0
M  END
> <VConfSearch Rank>
397

> <Conf_Id>
82

> <Delta U+W>
1.026

> <U+W>
22.868

> <U>
72.455

> <W>
-49.586

> <W(PB)>
-51.821

> <W(SA)>
2.234

> <Valence>
2.908

> <Coulomb>
69.435

> <VdW>
0.112

> <VdW6>
-7.765

> <VdW12>
7.877

> <Bond>
0.233

> <Angle>
1.170

> <Pdih>
1.506

> <Idih>
0.000

> <Tether>
0.000

$$$$
VeraChem MOL file


 26 25  0  0  0  0  0  0  0  0999 V2000     
   18.3405   17.3473   24.1960 N   0  3  0  0  0  0  0  0  0  0  0  0
   18.7451   17.5342   25.1265 H   0  0  0  0  0  0  0  0  0  0  0  0
   18.5446   16.3546   24.0020 H   0  0  0  0  0  0  0  0  0  0  0  0
   18.9966   18.2293   23.1530 C   0  0  0  0  0  0  0  0  0  0  0  0
   18.7588   19.2674   23.3972 H   0  0  0  0  0  0  0  0  0  0  0  0
   18.5508   17.9921   22.1838 H   0  0  0  0  0  0  0  0  0  0  0  0
   20.5249   18.0507   23.0780 C   0  0  0  0  0  0  0  0  0  0  0  0
   20.9721   18.2740   24.0550 H   0  0  0  0  0  0  0  0  0  0  0  0
   20.7539   16.9976   22.8676 H   0  0  0  0  0  0  0  0  0  0  0  0
   21.1761   18.9324   21.9836 C   0  0  0  0  0  0  0  0  0  0  0  0
   20.8069   18.6084   21.0007 H   0  0  0  0  0  0  0  0  0  0  0  0
   22.2582   18.7456   21.9688 H   0  0  0  0  0  0  0  0  0  0  0  0
   20.9142   20.4556   22.1329 C   0  0  0  0  0  0  0  0  0  0  0  0
   21.4341   20.9818   21.3204 H   0  0  0  0  0  0  0  0  0  0  0  0
   19.8459   20.6591   21.9790 H   0  0  0  0  0  0  0  0  0  0  0  0
   21.3517   21.0705   23.4868 C   0  0  0  0  0  0  0  0  0  0  0  0
   20.7679   20.6345   24.3086 H   0  0  0  0  0  0  0  0  0  0  0  0
   21.1070   22.1419   23.4801 H   0  0  0  0  0  0  0  0  0  0  0  0
   22.8614   20.9072   23.7751 C   0  0  0  0  0  0  0  0  0  0  0  0
   23.1358   19.8523   23.8994 H   0  0  0  0  0  0  0  0  0  0  0  0
   23.1353   21.4312   24.6999 H   0  0  0  0  0  0  0  0  0  0  0  0
   23.4661   21.3260   22.9603 H   0  0  0  0  0  0  0  0  0  0  0  0
   16.8377   17.5908   24.2085 C   0  0  0  0  0  0  0  0  0  0  0  0
   16.4275   17.3550   23.2241 H   0  0  0  0  0  0  0  0  0  0  0  0
   16.3772   16.9495   24.9634 H   0  0  0  0  0  0  0  0  0  0  0  0
   16.6457   18.6390   24.4482 H   0  0  0  0  0  0  0  0  0  0  0  0
  1  2  1  0  0  0  0
  1  3  1  0  0  0  0
  1  4  1  0  0  0  0
  4  5  1  0  0  0  0
  4  6  1  0  0  0  0
  4  7  1  0  0  0  0
  7  8  1  0  0  0  0
  7  9  1  0  0  0  0
  7 10  1  0  0  0  0
 10 11  1  0  0  0  0
 10 12  1  0  0  0  0
 10 13  1  0  0  0  0
 13 14  1  0  0  0  0
 13 15  1  0  0  0  0
 13 16  1  0  0  0  0
 16 17  1  0  0  0  0
 16 18  1  0  0  0  0
 16 19  1  0  0  0  0
 19 20  1  0  0  0  0
 19 21  1  0  0  0  0
 19 22  1  0  0  0  0
  1 23  1  0  0  0  0
 23 24  1  0  0  0  0
 23 25  1  0  0  0  0
 23 26  1  0  0  0  0
M  END
> <VConfSearch Rank>
398

> <Conf_Id>
71

> <Delta U+W>
1.096

> <U+W>
22.938

> <U>
72.455

> <W>
-49.517

> <W(PB)>
-51.795

> <W(SA)>
2.278

> <Valence>
2.908

> <Coulomb>
69.435

> <VdW>
0.112

> <VdW6>
-7.766

> <VdW12>
7.877

> <Bond>
0.233

> <Angle>
1.170

> <Pdih>
1.506

> <Idih>
0.000

> <Tether>
0.000

$$$$
VeraChem MOL file


 26 25  0  0  0  0  0  0  0  0999 V2000     
   21.3895   20.2704   21.5958 N   0  3  0  0  0  0  0  0  0  0  0  0
   21.7774   19.8019   22.4281 H   0  0  0  0  0  0  0  0  0  0  0  0
   21.8959   21.1675   21.5299 H   0  0  0  0  0  0  0  0  0  0  0  0
   19.9054   20.5354   21.7936 C   0  0  0  0  0  0  0  0  0  0  0  0
   19.5299   21.0136   20.8855 H   0  0  0  0  0  0  0  0  0  0  0  0
   19.8080   21.2518   22.6128 H   0  0  0  0  0  0  0  0  0  0  0  0
   19.0521   19.2861   22.1105 C   0  0  0  0  0  0  0  0  0  0  0  0
   18.0075   19.5989   22.2394 H   0  0  0  0  0  0  0  0  0  0  0  0
   19.0597   18.6117   21.2445 H   0  0  0  0  0  0  0  0  0  0  0  0
   19.5105   18.5065   23.3689 C   0  0  0  0  0  0  0  0  0  0  0  0
   20.5274   18.1205   23.2184 H   0  0  0  0  0  0  0  0  0  0  0  0
   18.8633   17.6267   23.4781 H   0  0  0  0  0  0  0  0  0  0  0  0
   19.4558   19.3540   24.6656 C   0  0  0  0  0  0  0  0  0  0  0  0
   20.0790   20.2501   24.5471 H   0  0  0  0  0  0  0  0  0  0  0  0
   18.4301   19.7113   24.8311 H   0  0  0  0  0  0  0  0  0  0  0  0
   19.9452   18.5915   25.9209 C   0  0  0  0  0  0  0  0  0  0  0  0
   19.9823   19.2929   26.7662 H   0  0  0  0  0  0  0  0  0  0  0  0
   20.9758   18.2427   25.7665 H   0  0  0  0  0  0  0  0  0  0  0  0
   19.0440   17.3964   26.3074 C   0  0  0  0  0  0  0  0  0  0  0  0
   19.0730   16.6059   25.5475 H   0  0  0  0  0  0  0  0  0  0  0  0
   18.0009   17.7132   26.4355 H   0  0  0  0  0  0  0  0  0  0  0  0
   19.3786   16.9540   27.2547 H   0  0  0  0  0  0  0  0  0  0  0  0
   21.6388   19.4399   20.3422 C   0  0  0  0  0  0  0  0  0  0  0  0
   22.7142   19.2960   20.2168 H   0  0  0  0  0  0  0  0  0  0  0  0
   21.1483   18.4701   20.4484 H   0  0  0  0  0  0  0  0  0  0  0  0
   21.2337   19.9676   19.4761 H   0  0  0  0  0  0  0  0  0  0  0  0
  1  2  1  0  0  0  0
  1  3  1  0  0  0  0
  1  4  1  0  0  0  0
  4  5  1  0  0  0  0
  4  6  1  0  0  0  0
  4  7  1  0  0  0  0
  7  8  1  0  0  0  0
  7  9  1  0  0  0  0
  7 10  1  0  0  0  0
 10 11  1  0  0  0  0
 10 12  1  0  0  0  0
 10 13  1  0  0  0  0
 13 14  1  0  0  0  0
 13 15  1  0  0  0  0
 13 16  1  0  0  0  0
 16 17  1  0  0  0  0
 16 18  1  0  0  0  0
 16 19  1  0  0  0  0
 19 20  1  0  0  0  0
 19 21  1  0  0  0  0
 19 22  1  0  0  0  0
  1 23  1  0  0  0  0
 23 24  1  0  0  0  0
 23 25  1  0  0  0  0
 23 26  1  0  0  0  0
M  END
> <VConfSearch Rank>
399

> <Conf_Id>
84

> <Delta U+W>
1.456

> <U+W>
23.298

> <U>
73.042

> <W>
-49.744

> <W(PB)>
-51.966

> <W(SA)>
2.222

> <Valence>
2.938

> <Coulomb>
69.625

> <VdW>
0.478

> <VdW6>
-8.182

> <VdW12>
8.660

> <Bond>
0.253

> <Angle>
1.038

> <Pdih>
1.647

> <Idih>
0.000

> <Tether>
0.000

$$$$
VeraChem MOL file


 26 25  0  0  0  0  0  0  0  0999 V2000     
   21.8817   19.1848   21.8811 N   0  3  0  0  0  0  0  0  0  0  0  0
   21.5371   19.9820   22.4367 H   0  0  0  0  0  0  0  0  0  0  0  0
   21.8660   19.5033   20.8998 H   0  0  0  0  0  0  0  0  0  0  0  0
   20.9602   17.9938   22.0575 C   0  0  0  0  0  0  0  0  0  0  0  0
   21.0069   17.6842   23.1042 H   0  0  0  0  0  0  0  0  0  0  0  0
   21.3523   17.1781   21.4447 H   0  0  0  0  0  0  0  0  0  0  0  0
   19.4958   18.2738   21.6612 C   0  0  0  0  0  0  0  0  0  0  0  0
   19.4549   18.5327   20.5948 H   0  0  0  0  0  0  0  0  0  0  0  0
   18.9183   17.3464   21.7726 H   0  0  0  0  0  0  0  0  0  0  0  0
   18.8212   19.3975   22.4880 C   0  0  0  0  0  0  0  0  0  0  0  0
   17.7926   19.5284   22.1245 H   0  0  0  0  0  0  0  0  0  0  0  0
   19.3312   20.3531   22.3068 H   0  0  0  0  0  0  0  0  0  0  0  0
   18.7884   19.1013   24.0069 C   0  0  0  0  0  0  0  0  0  0  0  0
   18.2987   18.1333   24.1813 H   0  0  0  0  0  0  0  0  0  0  0  0
   19.8117   19.0145   24.3959 H   0  0  0  0  0  0  0  0  0  0  0  0
   18.0416   20.2036   24.7907 C   0  0  0  0  0  0  0  0  0  0  0  0
   17.0119   20.2925   24.4169 H   0  0  0  0  0  0  0  0  0  0  0  0
   18.5260   21.1749   24.6183 H   0  0  0  0  0  0  0  0  0  0  0  0
   18.0120   19.9082   26.3055 C   0  0  0  0  0  0  0  0  0  0  0  0
   17.5029   18.9579   26.5127 H   0  0  0  0  0  0  0  0  0  0  0  0
   17.4773   20.7010   26.8447 H   0  0  0  0  0  0  0  0  0  0  0  0
   19.0283   19.8482   26.7163 H   0  0  0  0  0  0  0  0  0  0  0  0
   23.2968   18.8126   22.3010 C   0  0  0  0  0  0  0  0  0  0  0  0
   23.6503   17.9873   21.6790 H   0  0  0  0  0  0  0  0  0  0  0  0
   23.9490   19.6789   22.1699 H   0  0  0  0  0  0  0  0  0  0  0  0
   23.2921   18.5097   23.3503 H   0  0  0  0  0  0  0  0  0  0  0  0
  1  2  1  0  0  0  0
  1  3  1  0  0  0  0
  1  4  1  0  0  0  0
  4  5  1  0  0  0  0
  4  6  1  0  0  0  0
  4  7  1  0  0  0  0
  7  8  1  0  0  0  0
  7  9  1  0  0  0  0
  7 10  1  0  0  0  0
 10 11  1  0  0  0  0
 10 12  1  0  0  0  0
 10 13  1  0  0  0  0
 13 14  1  0  0  0  0
 13 15  1  0  0  0  0
 13 16  1  0  0  0  0
 16 17  1  0  0  0  0
 16 18  1  0  0  0  0
 16 19  1  0  0  0  0
 19 20  1  0  0  0  0
 19 21  1  0  0  0  0
 19 22  1  0  0  0  0
  1 23  1  0  0  0  0
 23 24  1  0  0  0  0
 23 25  1  0  0  0  0
 23 26  1  0  0  0  0
M  END
> <VConfSearch Rank>
400

> <Conf_Id>
73

> <Delta U+W>
0.884

> <U+W>
22.726

> <U>
71.905

> <W>
-49.179

> <W(PB)>
-51.494

> <W(SA)>
2.315

> <Valence>
2.125

> <Coulomb>
69.686

> <VdW>
0.093

> <VdW6>
-6.766

> <VdW12>
6.859

> <Bond>
0.169

> <Angle>
0.621

> <Pdih>
1.336

> <Idih>
0.000

> <Tether>
0.000

$$$$
VeraChem MOL file


 26 25  0  0  0  0  0  0  0  0999 V2000     
   22.2965   20.3625   21.3448 N   0  3  0  0  0  0  0  0  0  0  0  0
   22.8294   20.8279   22.0959 H   0  0  0  0  0  0  0  0  0  0  0  0
   21.6857   21.0935   20.9481 H   0  0  0  0  0  0  0  0  0  0  0  0
   21.4598   19.2362   21.9178 C   0  0  0  0  0  0  0  0  0  0  0  0
   22.1417   18.4900   22.3335 H   0  0  0  0  0  0  0  0  0  0  0  0
   20.9072   18.7767   21.0944 H   0  0  0  0  0  0  0  0  0  0  0  0
   20.4756   19.7018   23.0061 C   0  0  0  0  0  0  0  0  0  0  0  0
   21.0337   20.1776   23.8236 H   0  0  0  0  0  0  0  0  0  0  0  0
   19.8033   20.4633   22.5887 H   0  0  0  0  0  0  0  0  0  0  0  0
   19.6459   18.5223   23.5599 C   0  0  0  0  0  0  0  0  0  0  0  0
   20.3223   17.7603   23.9718 H   0  0  0  0  0  0  0  0  0  0  0  0
   19.0934   18.0456   22.7382 H   0  0  0  0  0  0  0  0  0  0  0  0
   18.6535   18.9782   24.6539 C   0  0  0  0  0  0  0  0  0  0  0  0
   19.2056   19.4548   25.4757 H   0  0  0  0  0  0  0  0  0  0  0  0
   17.9770   19.7400   24.2422 H   0  0  0  0  0  0  0  0  0  0  0  0
   17.8237   17.7983   25.2076 C   0  0  0  0  0  0  0  0  0  0  0  0
   18.4959   17.0343   25.6228 H   0  0  0  0  0  0  0  0  0  0  0  0
   17.2673   17.3195   24.3895 H   0  0  0  0  0  0  0  0  0  0  0  0
   16.8340   18.2572   26.2996 C   0  0  0  0  0  0  0  0  0  0  0  0
   16.2544   17.4061   26.6801 H   0  0  0  0  0  0  0  0  0  0  0  0
   16.1256   18.9973   25.9050 H   0  0  0  0  0  0  0  0  0  0  0  0
   17.3638   18.7098   27.1479 H   0  0  0  0  0  0  0  0  0  0  0  0
   23.2387   19.8181   20.2799 C   0  0  0  0  0  0  0  0  0  0  0  0
   22.6514   19.3605   19.4807 H   0  0  0  0  0  0  0  0  0  0  0  0
   23.8351   20.6391   19.8757 H   0  0  0  0  0  0  0  0  0  0  0  0
   23.8964   19.0713   20.7301 H   0  0  0  0  0  0  0  0  0  0  0  0
  1  2  1  0  0  0  0
  1  3  1  0  0  0  0
  1  4  1  0  0  0  0
  4  5  1  0  0  0  0
  4  6  1  0  0  0  0
  4  7  1  0  0  0  0
  7  8  1  0  0  0  0
  7  9  1  0  0  0  0
  7 10  1  0  0  0  0
 10 11  1  0  0  0  0
 10 12  1  0  0  0  0
 10 13  1  0  0  0  0
 13 14  1  0  0  0  0
 13 15  1  0  0  0  0
 13 16  1  0  0  0  0
 16 17  1  0  0  0  0
 16 18  1  0  0  0  0
 16 19  1  0  0  0  0
 19 20  1  0  0  0  0
 19 21  1  0  0  0  0
 19 22  1  0  0  0  0
  1 23  1  0  0  0  0
 23 24  1  0  0  0  0
 23 25  1  0  0  0  0
 23 26  1  0  0  0  0
M  END
> <VConfSearch Rank>
401

> <Conf_Id>
11

> <Delta U+W>
0.000

> <U+W>
21.842

> <U>
70.357

> <W>
-48.515

> <W(PB)>
-50.856

> <W(SA)>
2.341

> <Valence>
1.714

> <Coulomb>
68.480

> <VdW>
0.163

> <VdW6>
-5.268

> <VdW12>
5.431

> <Bond>
0.126

> <Angle>
0.350

> <Pdih>
1.238

> <Idih>
0.000

> <Tether>
0.000

$$$$
VeraChem MOL file


 26 25  0  0  0  0  0  0  0  0999 V2000     
   21.8070   19.3758   26.1038 N   0  3  0  0  0  0  0  0  0  0  0  0
   22.3330   20.1107   26.6030 H   0  0  0  0  0  0  0  0  0  0  0  0
   22.5185   18.6830   25.8241 H   0  0  0  0  0  0  0  0  0  0  0  0
   21.1426   19.9725   24.8743 C   0  0  0  0  0  0  0  0  0  0  0  0
   21.9047   20.5446   24.3391 H   0  0  0  0  0  0  0  0  0  0  0  0
   20.3715   20.6690   25.2130 H   0  0  0  0  0  0  0  0  0  0  0  0
   20.5272   18.9358   23.9125 C   0  0  0  0  0  0  0  0  0  0  0  0
   21.2974   18.2112   23.6168 H   0  0  0  0  0  0  0  0  0  0  0  0
   19.7374   18.3741   24.4278 H   0  0  0  0  0  0  0  0  0  0  0  0
   19.9401   19.6132   22.6544 C   0  0  0  0  0  0  0  0  0  0  0  0
   20.7304   20.1772   22.1395 H   0  0  0  0  0  0  0  0  0  0  0  0
   19.1744   20.3420   22.9549 H   0  0  0  0  0  0  0  0  0  0  0  0
   19.3209   18.5846   21.6807 C   0  0  0  0  0  0  0  0  0  0  0  0
   20.0864   17.8557   21.3803 H   0  0  0  0  0  0  0  0  0  0  0  0
   18.5304   18.0209   22.1952 H   0  0  0  0  0  0  0  0  0  0  0  0
   18.7339   19.2625   20.4225 C   0  0  0  0  0  0  0  0  0  0  0  0
   19.5215   19.8259   19.9027 H   0  0  0  0  0  0  0  0  0  0  0  0
   17.9657   19.9911   20.7176 H   0  0  0  0  0  0  0  0  0  0  0  0
   18.1165   18.2324   19.4527 C   0  0  0  0  0  0  0  0  0  0  0  0
   17.7053   18.7325   18.5662 H   0  0  0  0  0  0  0  0  0  0  0  0
   17.3015   17.6761   19.9338 H   0  0  0  0  0  0  0  0  0  0  0  0
   18.8695   17.5096   19.1124 H   0  0  0  0  0  0  0  0  0  0  0  0
   20.7785   18.7499   27.0391 C   0  0  0  0  0  0  0  0  0  0  0  0
   20.2722   17.9309   26.5243 H   0  0  0  0  0  0  0  0  0  0  0  0
   21.2887   18.3663   27.9255 H   0  0  0  0  0  0  0  0  0  0  0  0
   20.0510   19.5099   27.3325 H   0  0  0  0  0  0  0  0  0  0  0  0
  1  2  1  0  0  0  0
  1  3  1  0  0  0  0
  1  4  1  0  0  0  0
  4  5  1  0  0  0  0
  4  6  1  0  0  0  0
  4  7  1  0  0  0  0
  7  8  1  0  0  0  0
  7  9  1  0  0  0  0
  7 10  1  0  0  0  0
 10 11  1  0  0  0  0
 10 12  1  0  0  0  0
 10 13  1  0  0  0  0
 13 14  1  0  0  0  0
 13 15  1  0  0  0  0
 13 16  1  0  0  0  0
 16 17  1  0  0  0  0
 16 18  1  0  0  0  0
 16 19  1  0  0  0  0
 19 20  1  0  0  0  0
 19 21  1  0  0  0  0
 19 22  1  0  0  0  0
  1 23  1  0  0  0  0
 23 24  1  0  0  0  0
 23 25  1  0  0  0  0
 23 26  1  0  0  0  0
M  END
> <VConfSearch Rank>
402

> <Conf_Id>
102

> <Delta U+W>
0.121

> <U+W>
21.963

> <U>
70.745

> <W>
-48.782

> <W(PB)>
-51.111

> <W(SA)>
2.329

> <Valence>
1.993

> <Coulomb>
68.323

> <VdW>
0.429

> <VdW6>
-5.973

> <VdW12>
6.402

> <Bond>
0.161

> <Angle>
0.472

> <Pdih>
1.360

> <Idih>
0.000

> <Tether>
0.000

$$$$
VeraChem MOL file


 26 25  0  0  0  0  0  0  0  0999 V2000     
   17.1806   18.2945   24.7804 N   0  3  0  0  0  0  0  0  0  0  0  0
   16.7668   17.8662   23.9379 H   0  0  0  0  0  0  0  0  0  0  0  0
   16.3983   18.7870   25.2403 H   0  0  0  0  0  0  0  0  0  0  0  0
   18.2520   19.2980   24.3874 C   0  0  0  0  0  0  0  0  0  0  0  0
   18.6911   19.6982   25.3048 H   0  0  0  0  0  0  0  0  0  0  0  0
   17.7527   20.1179   23.8649 H   0  0  0  0  0  0  0  0  0  0  0  0
   19.3614   18.7279   23.4802 C   0  0  0  0  0  0  0  0  0  0  0  0
   19.8928   17.9232   24.0046 H   0  0  0  0  0  0  0  0  0  0  0  0
   18.9070   18.2838   22.5847 H   0  0  0  0  0  0  0  0  0  0  0  0
   20.3675   19.8237   23.0640 C   0  0  0  0  0  0  0  0  0  0  0  0
   20.8151   20.2700   23.9631 H   0  0  0  0  0  0  0  0  0  0  0  0
   19.8351   20.6302   22.5407 H   0  0  0  0  0  0  0  0  0  0  0  0
   21.4846   19.2656   22.1530 C   0  0  0  0  0  0  0  0  0  0  0  0
   22.0174   18.4595   22.6763 H   0  0  0  0  0  0  0  0  0  0  0  0
   21.0372   18.8191   21.2541 H   0  0  0  0  0  0  0  0  0  0  0  0
   22.4907   20.3618   21.7368 C   0  0  0  0  0  0  0  0  0  0  0  0
   22.9429   20.8102   22.6326 H   0  0  0  0  0  0  0  0  0  0  0  0
   21.9630   21.1696   21.2104 H   0  0  0  0  0  0  0  0  0  0  0  0
   23.6048   19.8008   20.8274 C   0  0  0  0  0  0  0  0  0  0  0  0
   24.1735   19.0136   21.3393 H   0  0  0  0  0  0  0  0  0  0  0  0
   24.3087   20.5935   20.5426 H   0  0  0  0  0  0  0  0  0  0  0  0
   23.1859   19.3757   19.9060 H   0  0  0  0  0  0  0  0  0  0  0  0
   17.7394   17.2261   25.7134 C   0  0  0  0  0  0  0  0  0  0  0  0
   18.1529   17.7070   26.6026 H   0  0  0  0  0  0  0  0  0  0  0  0
   16.9337   16.5475   26.0023 H   0  0  0  0  0  0  0  0  0  0  0  0
   18.5218   16.6672   25.1963 H   0  0  0  0  0  0  0  0  0  0  0  0
  1  2  1  0  0  0  0
  1  3  1  0  0  0  0
  1  4  1  0  0  0  0
  4  5  1  0  0  0  0
  4  6  1  0  0  0  0
  4  7  1  0  0  0  0
  7  8  1  0  0  0  0
  7  9  1  0  0  0  0
  7 10  1  0  0  0  0
 10 11  1  0  0  0  0
 10 12  1  0  0  0  0
 10 13  1  0  0  0  0
 13 14  1  0  0  0  0
 13 15  1  0  0  0  0
 13 16  1  0  0  0  0
 16 17  1  0  0  0  0
 16 18  1  0  0  0  0
 16 19  1  0  0  0  0
 19 20  1  0  0  0  0
 19 21  1  0  0  0  0
 19 22  1  0  0  0  0
  1 23  1  0  0  0  0
 23 24  1  0  0  0  0
 23 25  1  0  0  0  0
 23 26  1  0  0  0  0
M  END
> <VConfSearch Rank>
403

> <Conf_Id>
37

> <Delta U+W>
0.125

> <U+W>
21.967

> <U>
70.745

> <W>
-48.778

> <W(PB)>
-51.115

> <W(SA)>
2.337

> <Valence>
1.993

> <Coulomb>
68.323

> <VdW>
0.429

> <VdW6>
-5.973

> <VdW12>
6.403

> <Bond>
0.161

> <Angle>
0.472

> <Pdih>
1.360

> <Idih>
0.000

> <Tether>
0.000

$$$$
VeraChem MOL file


 26 25  0  0  0  0  0  0  0  0999 V2000     
   22.5310   18.3607   21.7181 N   0  3  0  0  0  0  0  0  0  0  0  0
   22.3674   18.4636   20.7044 H   0  0  0  0  0  0  0  0  0  0  0  0
   22.4965   17.3456   21.9000 H   0  0  0  0  0  0  0  0  0  0  0  0
   21.4420   19.0692   22.4981 C   0  0  0  0  0  0  0  0  0  0  0  0
   21.5061   20.1361   22.2700 H   0  0  0  0  0  0  0  0  0  0  0  0
   21.6512   18.9306   23.5614 H   0  0  0  0  0  0  0  0  0  0  0  0
   20.0267   18.5539   22.1724 C   0  0  0  0  0  0  0  0  0  0  0  0
   19.8486   18.6559   21.0936 H   0  0  0  0  0  0  0  0  0  0  0  0
   19.9614   17.4820   22.4018 H   0  0  0  0  0  0  0  0  0  0  0  0
   18.9195   19.3176   22.9371 C   0  0  0  0  0  0  0  0  0  0  0  0
   17.9457   18.9705   22.5681 H   0  0  0  0  0  0  0  0  0  0  0  0
   18.9801   20.3881   22.6968 H   0  0  0  0  0  0  0  0  0  0  0  0
   18.9941   19.1206   24.4729 C   0  0  0  0  0  0  0  0  0  0  0  0
   18.9130   18.0516   24.7138 H   0  0  0  0  0  0  0  0  0  0  0  0
   19.9774   19.4455   24.8378 H   0  0  0  0  0  0  0  0  0  0  0  0
   17.9097   19.9076   25.2484 C   0  0  0  0  0  0  0  0  0  0  0  0
   17.9933   20.9794   25.0202 H   0  0  0  0  0  0  0  0  0  0  0  0
   18.1051   19.8074   26.3253 H   0  0  0  0  0  0  0  0  0  0  0  0
   16.4702   19.4245   24.9584 C   0  0  0  0  0  0  0  0  0  0  0  0
   16.1799   19.6201   23.9188 H   0  0  0  0  0  0  0  0  0  0  0  0
   15.7526   19.9471   25.6040 H   0  0  0  0  0  0  0  0  0  0  0  0
   16.3690   18.3480   25.1477 H   0  0  0  0  0  0  0  0  0  0  0  0
   23.8924   18.9257   22.0993 C   0  0  0  0  0  0  0  0  0  0  0  0
   24.0569   18.7756   23.1686 H   0  0  0  0  0  0  0  0  0  0  0  0
   24.6674   18.4071   21.5305 H   0  0  0  0  0  0  0  0  0  0  0  0
   23.9162   19.9927   21.8673 H   0  0  0  0  0  0  0  0  0  0  0  0
  1  2  1  0  0  0  0
  1  3  1  0  0  0  0
  1  4  1  0  0  0  0
  4  5  1  0  0  0  0
  4  6  1  0  0  0  0
  4  7  1  0  0  0  0
  7  8  1  0  0  0  0
  7  9  1  0  0  0  0
  7 10  1  0  0  0  0
 10 11  1  0  0  0  0
 10 12  1  0  0  0  0
 10 13  1  0  0  0  0
 13 14  1  0  0  0  0
 13 15  1  0  0  0  0
 13 16  1  0  0  0  0
 16 17  1  0  0  0  0
 16 18  1  0  0  0  0
 16 19  1  0  0  0  0
 19 20  1  0  0  0  0
 19 21  1  0  0  0  0
 19 22  1  0  0  0  0
  1 23  1  0  0  0  0
 23 24  1  0  0  0  0
 23 25  1  0  0  0  0
 23 26  1  0  0  0  0
M  END
> <VConfSearch Rank>
404

> <Conf_Id>
137

> <Delta U+W>
1.038

> <U+W>
22.880

> <U>
71.810

> <W>
-48.930

> <W(PB)>
-51.257

> <W(SA)>
2.327

> <Valence>
2.568

> <Coulomb>
68.877

> <VdW>
0.364

> <VdW6>
-6.470

> <VdW12>
6.834

> <Bond>
0.191

> <Angle>
0.752

> <Pdih>
1.626

> <Idih>
0.000

> <Tether>
0.000

$$$$
VeraChem MOL file


 26 25  0  0  0  0  0  0  0  0999 V2000     
   17.4742   19.9118   22.1400 N   0  3  0  0  0  0  0  0  0  0  0  0
   17.8584   19.6514   21.2183 H   0  0  0  0  0  0  0  0  0  0  0  0
   17.6540   20.9233   22.2366 H   0  0  0  0  0  0  0  0  0  0  0  0
   18.1853   19.1470   23.2383 C   0  0  0  0  0  0  0  0  0  0  0  0
   17.9768   18.0837   23.0955 H   0  0  0  0  0  0  0  0  0  0  0  0
   17.7558   19.4567   24.1944 H   0  0  0  0  0  0  0  0  0  0  0  0
   19.7072   19.3786   23.2547 C   0  0  0  0  0  0  0  0  0  0  0  0
   20.1237   19.0820   22.2840 H   0  0  0  0  0  0  0  0  0  0  0  0
   19.9115   20.4500   23.3821 H   0  0  0  0  0  0  0  0  0  0  0  0
   20.3856   18.5800   24.3927 C   0  0  0  0  0  0  0  0  0  0  0  0
   20.2228   17.5041   24.2387 H   0  0  0  0  0  0  0  0  0  0  0  0
   19.8977   18.8316   25.3448 H   0  0  0  0  0  0  0  0  0  0  0  0
   21.9025   18.8611   24.5294 C   0  0  0  0  0  0  0  0  0  0  0  0
   22.0645   19.9342   24.7012 H   0  0  0  0  0  0  0  0  0  0  0  0
   22.2721   18.3468   25.4274 H   0  0  0  0  0  0  0  0  0  0  0  0
   22.7316   18.3973   23.3081 C   0  0  0  0  0  0  0  0  0  0  0  0
   22.4327   18.9565   22.4116 H   0  0  0  0  0  0  0  0  0  0  0  0
   22.5304   17.3364   23.1039 H   0  0  0  0  0  0  0  0  0  0  0  0
   24.2451   18.5951   23.5391 C   0  0  0  0  0  0  0  0  0  0  0  0
   24.4824   19.6521   23.7168 H   0  0  0  0  0  0  0  0  0  0  0  0
   24.8176   18.2641   22.6629 H   0  0  0  0  0  0  0  0  0  0  0  0
   24.5918   18.0167   24.4054 H   0  0  0  0  0  0  0  0  0  0  0  0
   15.9795   19.6276   22.1950 C   0  0  0  0  0  0  0  0  0  0  0  0
   15.5897   19.9415   23.1658 H   0  0  0  0  0  0  0  0  0  0  0  0
   15.4795   20.1843   21.3992 H   0  0  0  0  0  0  0  0  0  0  0  0
   15.8122   18.5570   22.0575 H   0  0  0  0  0  0  0  0  0  0  0  0
  1  2  1  0  0  0  0
  1  3  1  0  0  0  0
  1  4  1  0  0  0  0
  4  5  1  0  0  0  0
  4  6  1  0  0  0  0
  4  7  1  0  0  0  0
  7  8  1  0  0  0  0
  7  9  1  0  0  0  0
  7 10  1  0  0  0  0
 10 11  1  0  0  0  0
 10 12  1  0  0  0  0
 10 13  1  0  0  0  0
 13 14  1  0  0  0  0
 13 15  1  0  0  0  0
 13 16  1  0  0  0  0
 16 17  1  0  0  0  0
 16 18  1  0  0  0  0
 16 19  1  0  0  0  0
 19 20  1  0  0  0  0
 19 21  1  0  0  0  0
 19 22  1  0  0  0  0
  1 23  1  0  0  0  0
 23 24  1  0  0  0  0
 23 25  1  0  0  0  0
 23 26  1  0  0  0  0
M  END
> <VConfSearch Rank>
405

> <Conf_Id>
35

> <Delta U+W>
0.670

> <U+W>
22.512

> <U>
71.348

> <W>
-48.837

> <W(PB)>
-51.150

> <W(SA)>
2.313

> <Valence>
2.262

> <Coulomb>
68.807

> <VdW>
0.280

> <VdW6>
-5.915

> <VdW12>
6.195

> <Bond>
0.164

> <Angle>
0.622

> <Pdih>
1.475

> <Idih>
0.000

> <Tether>
0.000

$$$$
VeraChem MOL file


 26 25  0  0  0  0  0  0  0  0999 V2000     
   21.6193   20.6375   21.3418 N   0  3  0  0  0  0  0  0  0  0  0  0
   21.1087   21.5207   21.4973 H   0  0  0  0  0  0  0  0  0  0  0  0
   21.0981   20.1462   20.5989 H   0  0  0  0  0  0  0  0  0  0  0  0
   21.6284   19.8085   22.6105 C   0  0  0  0  0  0  0  0  0  0  0  0
   22.1809   20.3660   23.3710 H   0  0  0  0  0  0  0  0  0  0  0  0
   22.1693   18.8820   22.4018 H   0  0  0  0  0  0  0  0  0  0  0  0
   20.2182   19.4784   23.1325 C   0  0  0  0  0  0  0  0  0  0  0  0
   19.6730   20.4120   23.3253 H   0  0  0  0  0  0  0  0  0  0  0  0
   19.6674   18.9359   22.3539 H   0  0  0  0  0  0  0  0  0  0  0  0
   20.2808   18.6348   24.4277 C   0  0  0  0  0  0  0  0  0  0  0  0
   20.9051   19.1590   25.1648 H   0  0  0  0  0  0  0  0  0  0  0  0
   20.7831   17.6789   24.2235 H   0  0  0  0  0  0  0  0  0  0  0  0
   18.8933   18.3670   25.0616 C   0  0  0  0  0  0  0  0  0  0  0  0
   19.0434   17.8680   26.0290 H   0  0  0  0  0  0  0  0  0  0  0  0
   18.3983   19.3228   25.2823 H   0  0  0  0  0  0  0  0  0  0  0  0
   17.9686   17.4912   24.1829 C   0  0  0  0  0  0  0  0  0  0  0  0
   18.4833   16.5568   23.9187 H   0  0  0  0  0  0  0  0  0  0  0  0
   17.7405   18.0067   23.2406 H   0  0  0  0  0  0  0  0  0  0  0  0
   16.6449   17.1591   24.9044 C   0  0  0  0  0  0  0  0  0  0  0  0
   16.8294   16.6051   25.8340 H   0  0  0  0  0  0  0  0  0  0  0  0
   16.0003   16.5405   24.2665 H   0  0  0  0  0  0  0  0  0  0  0  0
   16.0921   18.0737   25.1555 H   0  0  0  0  0  0  0  0  0  0  0  0
   23.0477   20.9179   20.8959 C   0  0  0  0  0  0  0  0  0  0  0  0
   23.5571   19.9707   20.7058 H   0  0  0  0  0  0  0  0  0  0  0  0
   23.0269   21.5155   19.9818 H   0  0  0  0  0  0  0  0  0  0  0  0
   23.5686   21.4668   21.6836 H   0  0  0  0  0  0  0  0  0  0  0  0
  1  2  1  0  0  0  0
  1  3  1  0  0  0  0
  1  4  1  0  0  0  0
  4  5  1  0  0  0  0
  4  6  1  0  0  0  0
  4  7  1  0  0  0  0
  7  8  1  0  0  0  0
  7  9  1  0  0  0  0
  7 10  1  0  0  0  0
 10 11  1  0  0  0  0
 10 12  1  0  0  0  0
 10 13  1  0  0  0  0
 13 14  1  0  0  0  0
 13 15  1  0  0  0  0
 13 16  1  0  0  0  0
 16 17  1  0  0  0  0
 16 18  1  0  0  0  0
 16 19  1  0  0  0  0
 19 20  1  0  0  0  0
 19 21  1  0  0  0  0
 19 22  1  0  0  0  0
  1 23  1  0  0  0  0
 23 24  1  0  0  0  0
 23 25  1  0  0  0  0
 23 26  1  0  0  0  0
M  END
> <VConfSearch Rank>
406

> <Conf_Id>
36

> <Delta U+W>
0.662

> <U+W>
22.504

> <U>
71.348

> <W>
-48.844

> <W(PB)>
-51.157

> <W(SA)>
2.313

> <Valence>
2.262

> <Coulomb>
68.807

> <VdW>
0.280

> <VdW6>
-5.916

> <VdW12>
6.195

> <Bond>
0.164

> <Angle>
0.622

> <Pdih>
1.475

> <Idih>
0.000

> <Tether>
0.000

$$$$
VeraChem MOL file


 26 25  0  0  0  0  0  0  0  0999 V2000     
   20.7142   16.1437   23.5185 N   0  3  0  0  0  0  0  0  0  0  0  0
   20.1316   15.9729   24.3529 H   0  0  0  0  0  0  0  0  0  0  0  0
   21.6719   15.8749   23.7928 H   0  0  0  0  0  0  0  0  0  0  0  0
   20.6705   17.6109   23.1416 C   0  0  0  0  0  0  0  0  0  0  0  0
   19.6417   17.8526   22.8644 H   0  0  0  0  0  0  0  0  0  0  0  0
   21.3063   17.7507   22.2637 H   0  0  0  0  0  0  0  0  0  0  0  0
   21.1387   18.5446   24.2744 C   0  0  0  0  0  0  0  0  0  0  0  0
   20.5010   18.4029   25.1571 H   0  0  0  0  0  0  0  0  0  0  0  0
   22.1571   18.2630   24.5737 H   0  0  0  0  0  0  0  0  0  0  0  0
   21.1311   20.0355   23.8615 C   0  0  0  0  0  0  0  0  0  0  0  0
   21.7916   20.1790   22.9950 H   0  0  0  0  0  0  0  0  0  0  0  0
   21.5600   20.6298   24.6802 H   0  0  0  0  0  0  0  0  0  0  0  0
   19.7154   20.5685   23.5331 C   0  0  0  0  0  0  0  0  0  0  0  0
   19.2936   20.0156   22.6832 H   0  0  0  0  0  0  0  0  0  0  0  0
   19.0492   20.3931   24.3892 H   0  0  0  0  0  0  0  0  0  0  0  0
   19.7335   22.0764   23.1969 C   0  0  0  0  0  0  0  0  0  0  0  0
   20.3992   22.2578   22.3414 H   0  0  0  0  0  0  0  0  0  0  0  0
   20.1461   22.6413   24.0446 H   0  0  0  0  0  0  0  0  0  0  0  0
   18.3215   22.6065   22.8680 C   0  0  0  0  0  0  0  0  0  0  0  0
   17.8955   22.0846   22.0012 H   0  0  0  0  0  0  0  0  0  0  0  0
   18.3548   23.6781   22.6326 H   0  0  0  0  0  0  0  0  0  0  0  0
   17.6403   22.4696   23.7180 H   0  0  0  0  0  0  0  0  0  0  0  0
   20.2351   15.2942   22.3495 C   0  0  0  0  0  0  0  0  0  0  0  0
   20.8859   15.4670   21.4895 H   0  0  0  0  0  0  0  0  0  0  0  0
   20.2717   14.2402   22.6339 H   0  0  0  0  0  0  0  0  0  0  0  0
   19.2092   15.5733   22.0993 H   0  0  0  0  0  0  0  0  0  0  0  0
  1  2  1  0  0  0  0
  1  3  1  0  0  0  0
  1  4  1  0  0  0  0
  4  5  1  0  0  0  0
  4  6  1  0  0  0  0
  4  7  1  0  0  0  0
  7  8  1  0  0  0  0
  7  9  1  0  0  0  0
  7 10  1  0  0  0  0
 10 11  1  0  0  0  0
 10 12  1  0  0  0  0
 10 13  1  0  0  0  0
 13 14  1  0  0  0  0
 13 15  1  0  0  0  0
 13 16  1  0  0  0  0
 16 17  1  0  0  0  0
 16 18  1  0  0  0  0
 16 19  1  0  0  0  0
 19 20  1  0  0  0  0
 19 21  1  0  0  0  0
 19 22  1  0  0  0  0
  1 23  1  0  0  0  0
 23 24  1  0  0  0  0
 23 25  1  0  0  0  0
 23 26  1  0  0  0  0
M  END
> <VConfSearch Rank>
407

> <Conf_Id>
46

> <Delta U+W>
0.496

> <U+W>
22.338

> <U>
71.138

> <W>
-48.799

> <W(PB)>
-51.136

> <W(SA)>
2.337

> <Valence>
2.016

> <Coulomb>
68.932

> <VdW>
0.190

> <VdW6>
-5.902

> <VdW12>
6.092

> <Bond>
0.149

> <Angle>
0.477

> <Pdih>
1.390

> <Idih>
0.000

> <Tether>
0.000

$$$$
VeraChem MOL file


 26 25  0  0  0  0  0  0  0  0999 V2000     
   18.0403   17.9332   21.2511 N   0  3  0  0  0  0  0  0  0  0  0  0
   17.6084   18.5962   20.5887 H   0  0  0  0  0  0  0  0  0  0  0  0
   17.2933   17.6869   21.9191 H   0  0  0  0  0  0  0  0  0  0  0  0
   19.1938   18.5957   21.9770 C   0  0  0  0  0  0  0  0  0  0  0  0
   19.9554   18.8494   21.2354 H   0  0  0  0  0  0  0  0  0  0  0  0
   19.6163   17.8629   22.6685 H   0  0  0  0  0  0  0  0  0  0  0  0
   18.7797   19.8633   22.7490 C   0  0  0  0  0  0  0  0  0  0  0  0
   18.3167   20.5734   22.0509 H   0  0  0  0  0  0  0  0  0  0  0  0
   18.0131   19.6087   23.4930 H   0  0  0  0  0  0  0  0  0  0  0  0
   19.9742   20.5537   23.4488 C   0  0  0  0  0  0  0  0  0  0  0  0
   19.6236   21.4927   23.8993 H   0  0  0  0  0  0  0  0  0  0  0  0
   20.7273   20.8320   22.6984 H   0  0  0  0  0  0  0  0  0  0  0  0
   20.6273   19.6765   24.5441 C   0  0  0  0  0  0  0  0  0  0  0  0
   19.8647   19.3725   25.2745 H   0  0  0  0  0  0  0  0  0  0  0  0
   21.0267   18.7553   24.0991 H   0  0  0  0  0  0  0  0  0  0  0  0
   21.7677   20.4222   25.2725 C   0  0  0  0  0  0  0  0  0  0  0  0
   21.3775   21.3424   25.7296 H   0  0  0  0  0  0  0  0  0  0  0  0
   22.5334   20.7294   24.5463 H   0  0  0  0  0  0  0  0  0  0  0  0
   22.4195   19.5458   26.3635 C   0  0  0  0  0  0  0  0  0  0  0  0
   21.6848   19.2502   27.1238 H   0  0  0  0  0  0  0  0  0  0  0  0
   23.2259   20.0924   26.8693 H   0  0  0  0  0  0  0  0  0  0  0  0
   22.8507   18.6332   25.9318 H   0  0  0  0  0  0  0  0  0  0  0  0
   18.5330   16.6922   20.5196 C   0  0  0  0  0  0  0  0  0  0  0  0
   17.6929   16.2249   20.0010 H   0  0  0  0  0  0  0  0  0  0  0  0
   19.2981   16.9820   19.7959 H   0  0  0  0  0  0  0  0  0  0  0  0
   18.9548   15.9920   21.2439 H   0  0  0  0  0  0  0  0  0  0  0  0
  1  2  1  0  0  0  0
  1  3  1  0  0  0  0
  1  4  1  0  0  0  0
  4  5  1  0  0  0  0
  4  6  1  0  0  0  0
  4  7  1  0  0  0  0
  7  8  1  0  0  0  0
  7  9  1  0  0  0  0
  7 10  1  0  0  0  0
 10 11  1  0  0  0  0
 10 12  1  0  0  0  0
 10 13  1  0  0  0  0
 13 14  1  0  0  0  0
 13 15  1  0  0  0  0
 13 16  1  0  0  0  0
 16 17  1  0  0  0  0
 16 18  1  0  0  0  0
 16 19  1  0  0  0  0
 19 20  1  0  0  0  0
 19 21  1  0  0  0  0
 19 22  1  0  0  0  0
  1 23  1  0  0  0  0
 23 24  1  0  0  0  0
 23 25  1  0  0  0  0
 23 26  1  0  0  0  0
M  END
> <VConfSearch Rank>
408

> <Conf_Id>
45

> <Delta U+W>
0.471

> <U+W>
22.313

> <U>
71.138

> <W>
-48.825

> <W(PB)>
-51.169

> <W(SA)>
2.344

> <Valence>
2.016

> <Coulomb>
68.932

> <VdW>
0.190

> <VdW6>
-5.902

> <VdW12>
6.092

> <Bond>
0.149

> <Angle>
0.477

> <Pdih>
1.390

> <Idih>
0.000

> <Tether>
0.000

$$$$
VeraChem MOL file


 26 25  0  0  0  0  0  0  0  0999 V2000     
   19.5276   17.1174   21.6905 N   0  3  0  0  0  0  0  0  0  0  0  0
   20.0970   16.7521   22.4686 H   0  0  0  0  0  0  0  0  0  0  0  0
   20.1982   17.5485   21.0355 H   0  0  0  0  0  0  0  0  0  0  0  0
   18.5543   18.1613   22.2031 C   0  0  0  0  0  0  0  0  0  0  0  0
   17.8686   17.6705   22.8984 H   0  0  0  0  0  0  0  0  0  0  0  0
   17.9748   18.5200   21.3486 H   0  0  0  0  0  0  0  0  0  0  0  0
   19.2315   19.3577   22.9001 C   0  0  0  0  0  0  0  0  0  0  0  0
   19.9158   19.8440   22.1936 H   0  0  0  0  0  0  0  0  0  0  0  0
   18.4587   20.0967   23.1496 H   0  0  0  0  0  0  0  0  0  0  0  0
   19.9844   18.9464   24.1903 C   0  0  0  0  0  0  0  0  0  0  0  0
   20.8187   18.2762   23.9435 H   0  0  0  0  0  0  0  0  0  0  0  0
   19.3036   18.3700   24.8321 H   0  0  0  0  0  0  0  0  0  0  0  0
   20.5210   20.1512   25.0019 C   0  0  0  0  0  0  0  0  0  0  0  0
   19.6874   20.8138   25.2730 H   0  0  0  0  0  0  0  0  0  0  0  0
   20.9362   19.7768   25.9479 H   0  0  0  0  0  0  0  0  0  0  0  0
   21.6110   20.9609   24.2600 C   0  0  0  0  0  0  0  0  0  0  0  0
   21.1958   21.4088   23.3474 H   0  0  0  0  0  0  0  0  0  0  0  0
   22.4223   20.2899   23.9451 H   0  0  0  0  0  0  0  0  0  0  0  0
   22.1909   22.0822   25.1484 C   0  0  0  0  0  0  0  0  0  0  0  0
   21.4077   22.7876   25.4552 H   0  0  0  0  0  0  0  0  0  0  0  0
   22.9598   22.6478   24.6062 H   0  0  0  0  0  0  0  0  0  0  0  0
   22.6533   21.6695   26.0545 H   0  0  0  0  0  0  0  0  0  0  0  0
   18.7661   15.9882   21.0104 C   0  0  0  0  0  0  0  0  0  0  0  0
   18.1961   16.3937   20.1717 H   0  0  0  0  0  0  0  0  0  0  0  0
   19.4782   15.2439   20.6469 H   0  0  0  0  0  0  0  0  0  0  0  0
   18.0870   15.5278   21.7314 H   0  0  0  0  0  0  0  0  0  0  0  0
  1  2  1  0  0  0  0
  1  3  1  0  0  0  0
  1  4  1  0  0  0  0
  4  5  1  0  0  0  0
  4  6  1  0  0  0  0
  4  7  1  0  0  0  0
  7  8  1  0  0  0  0
  7  9  1  0  0  0  0
  7 10  1  0  0  0  0
 10 11  1  0  0  0  0
 10 12  1  0  0  0  0
 10 13  1  0  0  0  0
 13 14  1  0  0  0  0
 13 15  1  0  0  0  0
 13 16  1  0  0  0  0
 16 17  1  0  0  0  0
 16 18  1  0  0  0  0
 16 19  1  0  0  0  0
 19 20  1  0  0  0  0
 19 21  1  0  0  0  0
 19 22  1  0  0  0  0
  1 23  1  0  0  0  0
 23 24  1  0  0  0  0
 23 25  1  0  0  0  0
 23 26  1  0  0  0  0
M  END
> <VConfSearch Rank>
409

> <Conf_Id>
143

> <Delta U+W>
0.915

> <U+W>
22.757

> <U>
71.994

> <W>
-49.237

> <W(PB)>
-51.537

> <W(SA)>
2.300

> <Valence>
2.376

> <Coulomb>
69.315

> <VdW>
0.303

> <VdW6>
-6.508

> <VdW12>
6.810

> <Bond>
0.182

> <Angle>
0.660

> <Pdih>
1.534

> <Idih>
0.000

> <Tether>
0.000

$$$$
VeraChem MOL file


 26 25  0  0  0  0  0  0  0  0999 V2000     
   20.8979   17.7360   21.2367 N   0  3  0  0  0  0  0  0  0  0  0  0
   21.6094   18.4799   21.2956 H   0  0  0  0  0  0  0  0  0  0  0  0
   20.1569   18.1103   20.6238 H   0  0  0  0  0  0  0  0  0  0  0  0
   20.3359   17.4410   22.6142 C   0  0  0  0  0  0  0  0  0  0  0  0
   21.1487   17.0574   23.2360 H   0  0  0  0  0  0  0  0  0  0  0  0
   19.5903   16.6499   22.5015 H   0  0  0  0  0  0  0  0  0  0  0  0
   19.6867   18.6586   23.3015 C   0  0  0  0  0  0  0  0  0  0  0  0
   18.8905   19.0608   22.6613 H   0  0  0  0  0  0  0  0  0  0  0  0
   19.2087   18.3065   24.2238 H   0  0  0  0  0  0  0  0  0  0  0  0
   20.7100   19.7689   23.6439 C   0  0  0  0  0  0  0  0  0  0  0  0
   21.2641   20.0482   22.7382 H   0  0  0  0  0  0  0  0  0  0  0  0
   21.4552   19.3723   24.3474 H   0  0  0  0  0  0  0  0  0  0  0  0
   20.0812   21.0583   24.2335 C   0  0  0  0  0  0  0  0  0  0  0  0
   20.8951   21.7794   24.3920 H   0  0  0  0  0  0  0  0  0  0  0  0
   19.4140   21.5247   23.4956 H   0  0  0  0  0  0  0  0  0  0  0  0
   19.3392   20.8658   25.5815 C   0  0  0  0  0  0  0  0  0  0  0  0
   19.5016   21.7591   26.2009 H   0  0  0  0  0  0  0  0  0  0  0  0
   19.7755   20.0273   26.1421 H   0  0  0  0  0  0  0  0  0  0  0  0
   17.8134   20.6699   25.4203 C   0  0  0  0  0  0  0  0  0  0  0  0
   17.5708   19.7810   24.8277 H   0  0  0  0  0  0  0  0  0  0  0  0
   17.3570   21.5383   24.9276 H   0  0  0  0  0  0  0  0  0  0  0  0
   17.3352   20.5556   26.4017 H   0  0  0  0  0  0  0  0  0  0  0  0
   21.4974   16.4706   20.6396 C   0  0  0  0  0  0  0  0  0  0  0  0
   20.7191   15.7087   20.5573 H   0  0  0  0  0  0  0  0  0  0  0  0
   21.8982   16.6968   19.6490 H   0  0  0  0  0  0  0  0  0  0  0  0
   22.2992   16.1120   21.2889 H   0  0  0  0  0  0  0  0  0  0  0  0
  1  2  1  0  0  0  0
  1  3  1  0  0  0  0
  1  4  1  0  0  0  0
  4  5  1  0  0  0  0
  4  6  1  0  0  0  0
  4  7  1  0  0  0  0
  7  8  1  0  0  0  0
  7  9  1  0  0  0  0
  7 10  1  0  0  0  0
 10 11  1  0  0  0  0
 10 12  1  0  0  0  0
 10 13  1  0  0  0  0
 13 14  1  0  0  0  0
 13 15  1  0  0  0  0
 13 16  1  0  0  0  0
 16 17  1  0  0  0  0
 16 18  1  0  0  0  0
 16 19  1  0  0  0  0
 19 20  1  0  0  0  0
 19 21  1  0  0  0  0
 19 22  1  0  0  0  0
  1 23  1  0  0  0  0
 23 24  1  0  0  0  0
 23 25  1  0  0  0  0
 23 26  1  0  0  0  0
M  END
> <VConfSearch Rank>
410

> <Conf_Id>
76

> <Delta U+W>
3.468

> <U+W>
25.310

> <U>
74.594

> <W>
-49.283

> <W(PB)>
-51.537

> <W(SA)>
2.253

> <Valence>
4.886

> <Coulomb>
69.332

> <VdW>
0.376

> <VdW6>
-7.329

> <VdW12>
7.705

> <Bond>
0.232

> <Angle>
1.251

> <Pdih>
3.403

> <Idih>
0.000

> <Tether>
0.000

$$$$
VeraChem MOL file


 26 25  0  0  0  0  0  0  0  0999 V2000     
   20.9709   19.6807   20.7806 N   0  3  0  0  0  0  0  0  0  0  0  0
   21.4265   20.4888   21.2323 H   0  0  0  0  0  0  0  0  0  0  0  0
   20.1080   20.0541   20.3553 H   0  0  0  0  0  0  0  0  0  0  0  0
   20.6303   18.6264   21.8147 C   0  0  0  0  0  0  0  0  0  0  0  0
   21.5672   18.2634   22.2446 H   0  0  0  0  0  0  0  0  0  0  0  0
   20.1436   17.7952   21.2982 H   0  0  0  0  0  0  0  0  0  0  0  0
   19.7136   19.1471   22.9364 C   0  0  0  0  0  0  0  0  0  0  0  0
   20.1977   19.9960   23.4320 H   0  0  0  0  0  0  0  0  0  0  0  0
   18.7815   19.5256   22.4963 H   0  0  0  0  0  0  0  0  0  0  0  0
   19.3867   18.0324   23.9592 C   0  0  0  0  0  0  0  0  0  0  0  0
   20.3124   17.6022   24.3661 H   0  0  0  0  0  0  0  0  0  0  0  0
   18.8829   17.2156   23.4238 H   0  0  0  0  0  0  0  0  0  0  0  0
   18.4653   18.5033   25.1150 C   0  0  0  0  0  0  0  0  0  0  0  0
   17.8006   19.3073   24.7701 H   0  0  0  0  0  0  0  0  0  0  0  0
   17.8033   17.6690   25.3858 H   0  0  0  0  0  0  0  0  0  0  0  0
   19.2101   18.9427   26.4017 C   0  0  0  0  0  0  0  0  0  0  0  0
   19.7905   18.0979   26.7983 H   0  0  0  0  0  0  0  0  0  0  0  0
   18.4632   19.1851   27.1706 H   0  0  0  0  0  0  0  0  0  0  0  0
   20.1411   20.1608   26.2154 C   0  0  0  0  0  0  0  0  0  0  0  0
   19.6061   21.0027   25.7575 H   0  0  0  0  0  0  0  0  0  0  0  0
   21.0046   19.9103   25.5871 H   0  0  0  0  0  0  0  0  0  0  0  0
   20.5298   20.4978   27.1851 H   0  0  0  0  0  0  0  0  0  0  0  0
   21.8777   19.0848   19.7127 C   0  0  0  0  0  0  0  0  0  0  0  0
   22.7971   18.7267   20.1811 H   0  0  0  0  0  0  0  0  0  0  0  0
   21.3620   18.2537   19.2265 H   0  0  0  0  0  0  0  0  0  0  0  0
   22.1152   19.8540   18.9744 H   0  0  0  0  0  0  0  0  0  0  0  0
  1  2  1  0  0  0  0
  1  3  1  0  0  0  0
  1  4  1  0  0  0  0
  4  5  1  0  0  0  0
  4  6  1  0  0  0  0
  4  7  1  0  0  0  0
  7  8  1  0  0  0  0
  7  9  1  0  0  0  0
  7 10  1  0  0  0  0
 10 11  1  0  0  0  0
 10 12  1  0  0  0  0
 10 13  1  0  0  0  0
 13 14  1  0  0  0  0
 13 15  1  0  0  0  0
 13 16  1  0  0  0  0
 16 17  1  0  0  0  0
 16 18  1  0  0  0  0
 16 19  1  0  0  0  0
 19 20  1  0  0  0  0
 19 21  1  0  0  0  0
 19 22  1  0  0  0  0
  1 23  1  0  0  0  0
 23 24  1  0  0  0  0
 23 25  1  0  0  0  0
 23 26  1  0  0  0  0
M  END
> <VConfSearch Rank>
411

> <Conf_Id>
123

> <Delta U+W>
3.101

> <U+W>
24.943

> <U>
74.070

> <W>
-49.127

> <W(PB)>
-51.421

> <W(SA)>
2.295

> <Valence>
4.690

> <Coulomb>
69.115

> <VdW>
0.266

> <VdW6>
-6.809

> <VdW12>
7.075

> <Bond>
0.212

> <Angle>
1.133

> <Pdih>
3.345

> <Idih>
0.000

> <Tether>
0.000

$$$$
VeraChem MOL file


 26 25  0  0  0  0  0  0  0  0999 V2000     
   21.8910   20.9974   23.6580 N   0  3  0  0  0  0  0  0  0  0  0  0
   22.2767   20.7897   24.5922 H   0  0  0  0  0  0  0  0  0  0  0  0
   20.9909   21.4702   23.8294 H   0  0  0  0  0  0  0  0  0  0  0  0
   21.6649   19.7100   22.8890 C   0  0  0  0  0  0  0  0  0  0  0  0
   22.6414   19.2455   22.7302 H   0  0  0  0  0  0  0  0  0  0  0  0
   21.2477   19.9691   21.9126 H   0  0  0  0  0  0  0  0  0  0  0  0
   20.7335   18.7096   23.6015 C   0  0  0  0  0  0  0  0  0  0  0  0
   20.7248   17.7789   23.0233 H   0  0  0  0  0  0  0  0  0  0  0  0
   21.1535   18.4567   24.5841 H   0  0  0  0  0  0  0  0  0  0  0  0
   19.2907   19.2514   23.7685 C   0  0  0  0  0  0  0  0  0  0  0  0
   18.8976   19.5972   22.8024 H   0  0  0  0  0  0  0  0  0  0  0  0
   19.3226   20.1360   24.4184 H   0  0  0  0  0  0  0  0  0  0  0  0
   18.3166   18.2229   24.4007 C   0  0  0  0  0  0  0  0  0  0  0  0
   18.8616   17.5409   25.0679 H   0  0  0  0  0  0  0  0  0  0  0  0
   17.6142   18.7684   25.0461 H   0  0  0  0  0  0  0  0  0  0  0  0
   17.4772   17.4125   23.3798 C   0  0  0  0  0  0  0  0  0  0  0  0
   16.8573   18.0985   22.7856 H   0  0  0  0  0  0  0  0  0  0  0  0
   16.7760   16.7734   23.9345 H   0  0  0  0  0  0  0  0  0  0  0  0
   18.3114   16.5243   22.4309 C   0  0  0  0  0  0  0  0  0  0  0  0
   18.9853   15.8660   22.9942 H   0  0  0  0  0  0  0  0  0  0  0  0
   18.9102   17.1307   21.7402 H   0  0  0  0  0  0  0  0  0  0  0  0
   17.6537   15.8897   21.8229 H   0  0  0  0  0  0  0  0  0  0  0  0
   22.8322   21.9070   22.8807 C   0  0  0  0  0  0  0  0  0  0  0  0
   22.3882   22.1379   21.9099 H   0  0  0  0  0  0  0  0  0  0  0  0
   22.9859   22.8296   23.4449 H   0  0  0  0  0  0  0  0  0  0  0  0
   23.7879   21.3978   22.7389 H   0  0  0  0  0  0  0  0  0  0  0  0
  1  2  1  0  0  0  0
  1  3  1  0  0  0  0
  1  4  1  0  0  0  0
  4  5  1  0  0  0  0
  4  6  1  0  0  0  0
  4  7  1  0  0  0  0
  7  8  1  0  0  0  0
  7  9  1  0  0  0  0
  7 10  1  0  0  0  0
 10 11  1  0  0  0  0
 10 12  1  0  0  0  0
 10 13  1  0  0  0  0
 13 14  1  0  0  0  0
 13 15  1  0  0  0  0
 13 16  1  0  0  0  0
 16 17  1  0  0  0  0
 16 18  1  0  0  0  0
 16 19  1  0  0  0  0
 19 20  1  0  0  0  0
 19 21  1  0  0  0  0
 19 22  1  0  0  0  0
  1 23  1  0  0  0  0
 23 24  1  0  0  0  0
 23 25  1  0  0  0  0
 23 26  1  0  0  0  0
M  END
> <VConfSearch Rank>
412

> <Conf_Id>
111

> <Delta U+W>
3.383

> <U+W>
25.225

> <U>
74.516

> <W>
-49.292

> <W(PB)>
-51.558

> <W(SA)>
2.266

> <Valence>
4.842

> <Coulomb>
69.333

> <VdW>
0.342

> <VdW6>
-7.369

> <VdW12>
7.711

> <Bond>
0.232

> <Angle>
1.153

> <Pdih>
3.457

> <Idih>
0.000

> <Tether>
0.000

$$$$
VeraChem MOL file


 26 25  0  0  0  0  0  0  0  0999 V2000     
   20.1009   17.0760   22.0166 N   0  3  0  0  0  0  0  0  0  0  0  0
   19.2226   16.8272   21.5356 H   0  0  0  0  0  0  0  0  0  0  0  0
   19.8638   17.1244   23.0189 H   0  0  0  0  0  0  0  0  0  0  0  0
   20.5943   18.4265   21.5358 C   0  0  0  0  0  0  0  0  0  0  0  0
   20.8227   18.3355   20.4708 H   0  0  0  0  0  0  0  0  0  0  0  0
   21.5238   18.6527   22.0632 H   0  0  0  0  0  0  0  0  0  0  0  0
   19.5822   19.5719   21.7459 C   0  0  0  0  0  0  0  0  0  0  0  0
   20.0045   20.4953   21.3276 H   0  0  0  0  0  0  0  0  0  0  0  0
   18.6755   19.3601   21.1639 H   0  0  0  0  0  0  0  0  0  0  0  0
   19.1946   19.8133   23.2270 C   0  0  0  0  0  0  0  0  0  0  0  0
   18.6912   18.9254   23.6320 H   0  0  0  0  0  0  0  0  0  0  0  0
   18.4542   20.6232   23.2564 H   0  0  0  0  0  0  0  0  0  0  0  0
   20.4044   20.1844   24.1222 C   0  0  0  0  0  0  0  0  0  0  0  0
   21.1564   19.3857   24.0751 H   0  0  0  0  0  0  0  0  0  0  0  0
   20.8902   21.0892   23.7317 H   0  0  0  0  0  0  0  0  0  0  0  0
   20.0279   20.4015   25.6081 C   0  0  0  0  0  0  0  0  0  0  0  0
   20.9509   20.5442   26.1874 H   0  0  0  0  0  0  0  0  0  0  0  0
   19.5522   19.4951   26.0079 H   0  0  0  0  0  0  0  0  0  0  0  0
   19.1041   21.6192   25.8393 C   0  0  0  0  0  0  0  0  0  0  0  0
   18.1171   21.4701   25.3846 H   0  0  0  0  0  0  0  0  0  0  0  0
   19.5427   22.5334   25.4188 H   0  0  0  0  0  0  0  0  0  0  0  0
   18.9495   21.7851   26.9133 H   0  0  0  0  0  0  0  0  0  0  0  0
   21.1657   16.0165   21.7698 C   0  0  0  0  0  0  0  0  0  0  0  0
   20.7979   15.0501   22.1215 H   0  0  0  0  0  0  0  0  0  0  0  0
   21.3777   15.9633   20.6997 H   0  0  0  0  0  0  0  0  0  0  0  0
   22.0735   16.2861   22.3140 H   0  0  0  0  0  0  0  0  0  0  0  0
  1  2  1  0  0  0  0
  1  3  1  0  0  0  0
  1  4  1  0  0  0  0
  4  5  1  0  0  0  0
  4  6  1  0  0  0  0
  4  7  1  0  0  0  0
  7  8  1  0  0  0  0
  7  9  1  0  0  0  0
  7 10  1  0  0  0  0
 10 11  1  0  0  0  0
 10 12  1  0  0  0  0
 10 13  1  0  0  0  0
 13 14  1  0  0  0  0
 13 15  1  0  0  0  0
 13 16  1  0  0  0  0
 16 17  1  0  0  0  0
 16 18  1  0  0  0  0
 16 19  1  0  0  0  0
 19 20  1  0  0  0  0
 19 21  1  0  0  0  0
 19 22  1  0  0  0  0
  1 23  1  0  0  0  0
 23 24  1  0  0  0  0
 23 25  1  0  0  0  0
 23 26  1  0  0  0  0
M  END
> <VConfSearch Rank>
413

> <Conf_Id>
126

> <Delta U+W>
1.519

> <U+W>
23.361

> <U>
72.579

> <W>
-49.218

> <W(PB)>
-51.496

> <W(SA)>
2.279

> <Valence>
2.678

> <Coulomb>
69.622

> <VdW>
0.279

> <VdW6>
-7.328

> <VdW12>
7.608

> <Bond>
0.212

> <Angle>
0.911

> <Pdih>
1.555

> <Idih>
0.000

> <Tether>
0.000

$$$$
VeraChem MOL file


 26 25  0  0  0  0  0  0  0  0999 V2000     
   20.1687   19.3300   20.8892 N   0  3  0  0  0  0  0  0  0  0  0  0
   20.8384   19.7742   21.5351 H   0  0  0  0  0  0  0  0  0  0  0  0
   19.6132   20.1030   20.4909 H   0  0  0  0  0  0  0  0  0  0  0  0
   19.2671   18.3791   21.6518 C   0  0  0  0  0  0  0  0  0  0  0  0
   19.8885   17.5757   22.0541 H   0  0  0  0  0  0  0  0  0  0  0  0
   18.5677   17.9400   20.9357 H   0  0  0  0  0  0  0  0  0  0  0  0
   18.4760   19.0497   22.7941 C   0  0  0  0  0  0  0  0  0  0  0  0
   17.8128   19.8149   22.3694 H   0  0  0  0  0  0  0  0  0  0  0  0
   17.8202   18.2994   23.2553 H   0  0  0  0  0  0  0  0  0  0  0  0
   19.3641   19.6934   23.8892 C   0  0  0  0  0  0  0  0  0  0  0  0
   18.7035   20.1625   24.6297 H   0  0  0  0  0  0  0  0  0  0  0  0
   19.9626   20.5059   23.4564 H   0  0  0  0  0  0  0  0  0  0  0  0
   20.2952   18.6756   24.5965 C   0  0  0  0  0  0  0  0  0  0  0  0
   19.6929   17.8782   25.0532 H   0  0  0  0  0  0  0  0  0  0  0  0
   20.9403   18.1882   23.8537 H   0  0  0  0  0  0  0  0  0  0  0  0
   21.2038   19.3168   25.6735 C   0  0  0  0  0  0  0  0  0  0  0  0
   21.8178   20.1075   25.2200 H   0  0  0  0  0  0  0  0  0  0  0  0
   21.9065   18.5551   26.0396 H   0  0  0  0  0  0  0  0  0  0  0  0
   20.4230   19.8908   26.8779 C   0  0  0  0  0  0  0  0  0  0  0  0
   19.7756   19.1277   27.3291 H   0  0  0  0  0  0  0  0  0  0  0  0
   19.7979   20.7435   26.5854 H   0  0  0  0  0  0  0  0  0  0  0  0
   21.1166   20.2424   27.6526 H   0  0  0  0  0  0  0  0  0  0  0  0
   20.9051   18.5775   19.7899 C   0  0  0  0  0  0  0  0  0  0  0  0
   21.5093   17.7862   20.2390 H   0  0  0  0  0  0  0  0  0  0  0  0
   20.1763   18.1419   19.1028 H   0  0  0  0  0  0  0  0  0  0  0  0
   21.5509   19.2735   19.2499 H   0  0  0  0  0  0  0  0  0  0  0  0
  1  2  1  0  0  0  0
  1  3  1  0  0  0  0
  1  4  1  0  0  0  0
  4  5  1  0  0  0  0
  4  6  1  0  0  0  0
  4  7  1  0  0  0  0
  7  8  1  0  0  0  0
  7  9  1  0  0  0  0
  7 10  1  0  0  0  0
 10 11  1  0  0  0  0
 10 12  1  0  0  0  0
 10 13  1  0  0  0  0
 13 14  1  0  0  0  0
 13 15  1  0  0  0  0
 13 16  1  0  0  0  0
 16 17  1  0  0  0  0
 16 18  1  0  0  0  0
 16 19  1  0  0  0  0
 19 20  1  0  0  0  0
 19 21  1  0  0  0  0
 19 22  1  0  0  0  0
  1 23  1  0  0  0  0
 23 24  1  0  0  0  0
 23 25  1  0  0  0  0
 23 26  1  0  0  0  0
M  END
> <VConfSearch Rank>
414

> <Conf_Id>
134

> <Delta U+W>
1.464

> <U+W>
23.306

> <U>
72.579

> <W>
-49.273

> <W(PB)>
-51.540

> <W(SA)>
2.267

> <Valence>
2.677

> <Coulomb>
69.622

> <VdW>
0.280

> <VdW6>
-7.328

> <VdW12>
7.608

> <Bond>
0.212

> <Angle>
0.911

> <Pdih>
1.555

> <Idih>
0.000

> <Tether>
0.000

$$$$
VeraChem MOL file


 26 25  0  0  0  0  0  0  0  0999 V2000     
   22.6627   18.3750   24.2492 N   0  3  0  0  0  0  0  0  0  0  0  0
   22.3247   18.6869   25.1729 H   0  0  0  0  0  0  0  0  0  0  0  0
   23.2297   19.1569   23.8859 H   0  0  0  0  0  0  0  0  0  0  0  0
   21.4908   18.1062   23.3266 C   0  0  0  0  0  0  0  0  0  0  0  0
   20.9136   17.2801   23.7496 H   0  0  0  0  0  0  0  0  0  0  0  0
   21.8909   17.7877   22.3607 H   0  0  0  0  0  0  0  0  0  0  0  0
   20.5769   19.3294   23.1309 C   0  0  0  0  0  0  0  0  0  0  0  0
   20.1961   19.6511   24.1085 H   0  0  0  0  0  0  0  0  0  0  0  0
   21.1637   20.1620   22.7207 H   0  0  0  0  0  0  0  0  0  0  0  0
   19.3986   19.0059   22.1825 C   0  0  0  0  0  0  0  0  0  0  0  0
   18.7879   18.1996   22.6103 H   0  0  0  0  0  0  0  0  0  0  0  0
   19.7989   18.6116   21.2381 H   0  0  0  0  0  0  0  0  0  0  0  0
   18.5060   20.2324   21.8600 C   0  0  0  0  0  0  0  0  0  0  0  0
   19.1084   20.9834   21.3307 H   0  0  0  0  0  0  0  0  0  0  0  0
   17.7241   19.9227   21.1529 H   0  0  0  0  0  0  0  0  0  0  0  0
   17.8349   20.9043   23.0854 C   0  0  0  0  0  0  0  0  0  0  0  0
   17.2341   21.7541   22.7323 H   0  0  0  0  0  0  0  0  0  0  0  0
   18.5978   21.3326   23.7492 H   0  0  0  0  0  0  0  0  0  0  0  0
   16.9218   19.9492   23.8874 C   0  0  0  0  0  0  0  0  0  0  0  0
   16.1616   19.4935   23.2399 H   0  0  0  0  0  0  0  0  0  0  0  0
   16.4005   20.4948   24.6846 H   0  0  0  0  0  0  0  0  0  0  0  0
   17.4980   19.1445   24.3608 H   0  0  0  0  0  0  0  0  0  0  0  0
   23.5118   17.1189   24.3876 C   0  0  0  0  0  0  0  0  0  0  0  0
   23.8850   16.8275   23.4034 H   0  0  0  0  0  0  0  0  0  0  0  0
   24.3520   17.3261   25.0542 H   0  0  0  0  0  0  0  0  0  0  0  0
   22.8998   16.3158   24.8042 H   0  0  0  0  0  0  0  0  0  0  0  0
  1  2  1  0  0  0  0
  1  3  1  0  0  0  0
  1  4  1  0  0  0  0
  4  5  1  0  0  0  0
  4  6  1  0  0  0  0
  4  7  1  0  0  0  0
  7  8  1  0  0  0  0
  7  9  1  0  0  0  0
  7 10  1  0  0  0  0
 10 11  1  0  0  0  0
 10 12  1  0  0  0  0
 10 13  1  0  0  0  0
 13 14  1  0  0  0  0
 13 15  1  0  0  0  0
 13 16  1  0  0  0  0
 16 17  1  0  0  0  0
 16 18  1  0  0  0  0
 16 19  1  0  0  0  0
 19 20  1  0  0  0  0
 19 21  1  0  0  0  0
 19 22  1  0  0  0  0
  1 23  1  0  0  0  0
 23 24  1  0  0  0  0
 23 25  1  0  0  0  0
 23 26  1  0  0  0  0
M  END
> <VConfSearch Rank>
415

> <Conf_Id>
30

> <Delta U+W>
0.910

> <U+W>
22.752

> <U>
71.870

> <W>
-49.118

> <W(PB)>
-51.409

> <W(SA)>
2.290

> <Valence>
2.682

> <Coulomb>
68.933

> <VdW>
0.255

> <VdW6>
-6.833

> <VdW12>
7.088

> <Bond>
0.205

> <Angle>
1.003

> <Pdih>
1.473

> <Idih>
0.000

> <Tether>
0.000

$$$$
VeraChem MOL file


 26 25  0  0  0  0  0  0  0  0999 V2000     
   19.9773   20.6282   20.9977 N   0  3  0  0  0  0  0  0  0  0  0  0
   20.1471   19.9098   20.2767 H   0  0  0  0  0  0  0  0  0  0  0  0
   20.9132   20.9382   21.3024 H   0  0  0  0  0  0  0  0  0  0  0  0
   19.2191   20.0286   22.1649 C   0  0  0  0  0  0  0  0  0  0  0  0
   18.2408   19.7067   21.7992 H   0  0  0  0  0  0  0  0  0  0  0  0
   19.0672   20.8168   22.9066 H   0  0  0  0  0  0  0  0  0  0  0  0
   19.9460   18.8380   22.8161 C   0  0  0  0  0  0  0  0  0  0  0  0
   20.1109   18.0550   22.0641 H   0  0  0  0  0  0  0  0  0  0  0  0
   20.9334   19.1684   23.1627 H   0  0  0  0  0  0  0  0  0  0  0  0
   19.1337   18.2611   23.9992 C   0  0  0  0  0  0  0  0  0  0  0  0
   18.1231   18.0094   23.6487 H   0  0  0  0  0  0  0  0  0  0  0  0
   19.0015   19.0320   24.7701 H   0  0  0  0  0  0  0  0  0  0  0  0
   19.7644   16.9896   24.6242 C   0  0  0  0  0  0  0  0  0  0  0  0
   19.1052   16.6267   25.4248 H   0  0  0  0  0  0  0  0  0  0  0  0
   19.7848   16.1924   23.8684 H   0  0  0  0  0  0  0  0  0  0  0  0
   21.1936   17.1714   25.1965 C   0  0  0  0  0  0  0  0  0  0  0  0
   21.8980   17.4149   24.3899 H   0  0  0  0  0  0  0  0  0  0  0  0
   21.5302   16.2093   25.6076 H   0  0  0  0  0  0  0  0  0  0  0  0
   21.2802   18.2436   26.3064 C   0  0  0  0  0  0  0  0  0  0  0  0
   21.0664   19.2460   25.9151 H   0  0  0  0  0  0  0  0  0  0  0  0
   22.2880   18.2670   26.7407 H   0  0  0  0  0  0  0  0  0  0  0  0
   20.5704   18.0315   27.1164 H   0  0  0  0  0  0  0  0  0  0  0  0
   19.1921   21.7948   20.4144 C   0  0  0  0  0  0  0  0  0  0  0  0
   19.7489   22.2174   19.5750 H   0  0  0  0  0  0  0  0  0  0  0  0
   18.2198   21.4365   20.0691 H   0  0  0  0  0  0  0  0  0  0  0  0
   19.0536   22.5559   21.1855 H   0  0  0  0  0  0  0  0  0  0  0  0
  1  2  1  0  0  0  0
  1  3  1  0  0  0  0
  1  4  1  0  0  0  0
  4  5  1  0  0  0  0
  4  6  1  0  0  0  0
  4  7  1  0  0  0  0
  7  8  1  0  0  0  0
  7  9  1  0  0  0  0
  7 10  1  0  0  0  0
 10 11  1  0  0  0  0
 10 12  1  0  0  0  0
 10 13  1  0  0  0  0
 13 14  1  0  0  0  0
 13 15  1  0  0  0  0
 13 16  1  0  0  0  0
 16 17  1  0  0  0  0
 16 18  1  0  0  0  0
 16 19  1  0  0  0  0
 19 20  1  0  0  0  0
 19 21  1  0  0  0  0
 19 22  1  0  0  0  0
  1 23  1  0  0  0  0
 23 24  1  0  0  0  0
 23 25  1  0  0  0  0
 23 26  1  0  0  0  0
M  END
> <VConfSearch Rank>
416

> <Conf_Id>
29

> <Delta U+W>
0.886

> <U+W>
22.729

> <U>
71.870

> <W>
-49.141

> <W(PB)>
-51.404

> <W(SA)>
2.262

> <Valence>
2.682

> <Coulomb>
68.933

> <VdW>
0.255

> <VdW6>
-6.833

> <VdW12>
7.088

> <Bond>
0.205

> <Angle>
1.003

> <Pdih>
1.473

> <Idih>
0.000

> <Tether>
0.000

$$$$
VeraChem MOL file


 26 25  0  0  0  0  0  0  0  0999 V2000     
   22.0935   19.4413   21.7488 N   0  3  0  0  0  0  0  0  0  0  0  0
   23.0148   19.3024   22.1923 H   0  0  0  0  0  0  0  0  0  0  0  0
   21.8911   20.4484   21.8458 H   0  0  0  0  0  0  0  0  0  0  0  0
   21.0390   18.6239   22.4672 C   0  0  0  0  0  0  0  0  0  0  0  0
   21.2961   17.5680   22.3518 H   0  0  0  0  0  0  0  0  0  0  0  0
   20.0828   18.8024   21.9696 H   0  0  0  0  0  0  0  0  0  0  0  0
   20.9172   18.9670   23.9641 C   0  0  0  0  0  0  0  0  0  0  0  0
   21.8919   18.8185   24.4475 H   0  0  0  0  0  0  0  0  0  0  0  0
   20.6738   20.0306   24.0815 H   0  0  0  0  0  0  0  0  0  0  0  0
   19.8608   18.0987   24.6916 C   0  0  0  0  0  0  0  0  0  0  0  0
   19.8360   18.3778   25.7534 H   0  0  0  0  0  0  0  0  0  0  0  0
   20.1874   17.0498   24.6693 H   0  0  0  0  0  0  0  0  0  0  0  0
   18.4280   18.1833   24.0991 C   0  0  0  0  0  0  0  0  0  0  0  0
   18.4232   17.7458   23.0916 H   0  0  0  0  0  0  0  0  0  0  0  0
   17.7625   17.5474   24.6991 H   0  0  0  0  0  0  0  0  0  0  0  0
   17.8264   19.6101   24.0289 C   0  0  0  0  0  0  0  0  0  0  0  0
   16.8233   19.5456   23.5847 H   0  0  0  0  0  0  0  0  0  0  0  0
   18.4162   20.2382   23.3479 H   0  0  0  0  0  0  0  0  0  0  0  0
   17.7159   20.2974   25.4089 C   0  0  0  0  0  0  0  0  0  0  0  0
   17.2079   21.2660   25.3166 H   0  0  0  0  0  0  0  0  0  0  0  0
   18.7046   20.4833   25.8464 H   0  0  0  0  0  0  0  0  0  0  0  0
   17.1394   19.6815   26.1112 H   0  0  0  0  0  0  0  0  0  0  0  0
   22.1430   19.0457   20.2796 C   0  0  0  0  0  0  0  0  0  0  0  0
   22.9064   19.6412   19.7738 H   0  0  0  0  0  0  0  0  0  0  0  0
   22.3911   17.9849   20.2015 H   0  0  0  0  0  0  0  0  0  0  0  0
   21.1679   19.2323   19.8243 H   0  0  0  0  0  0  0  0  0  0  0  0
  1  2  1  0  0  0  0
  1  3  1  0  0  0  0
  1  4  1  0  0  0  0
  4  5  1  0  0  0  0
  4  6  1  0  0  0  0
  4  7  1  0  0  0  0
  7  8  1  0  0  0  0
  7  9  1  0  0  0  0
  7 10  1  0  0  0  0
 10 11  1  0  0  0  0
 10 12  1  0  0  0  0
 10 13  1  0  0  0  0
 13 14  1  0  0  0  0
 13 15  1  0  0  0  0
 13 16  1  0  0  0  0
 16 17  1  0  0  0  0
 16 18  1  0  0  0  0
 16 19  1  0  0  0  0
 19 20  1  0  0  0  0
 19 21  1  0  0  0  0
 19 22  1  0  0  0  0
  1 23  1  0  0  0  0
 23 24  1  0  0  0  0
 23 25  1  0  0  0  0
 23 26  1  0  0  0  0
M  END
> <VConfSearch Rank>
417

> <Conf_Id>
82

> <Delta U+W>
1.026

> <U+W>
22.868

> <U>
72.455

> <W>
-49.586

> <W(PB)>
-51.821

> <W(SA)>
2.234

> <Valence>
2.908

> <Coulomb>
69.435

> <VdW>
0.112

> <VdW6>
-7.765

> <VdW12>
7.877

> <Bond>
0.233

> <Angle>
1.170

> <Pdih>
1.506

> <Idih>
0.000

> <Tether>
0.000

$$$$
VeraChem MOL file


 26 25  0  0  0  0  0  0  0  0999 V2000     
   17.7490   20.1514   22.7877 N   0  3  0  0  0  0  0  0  0  0  0  0
   17.3855   19.1897   22.8750 H   0  0  0  0  0  0  0  0  0  0  0  0
   17.5780   20.4217   21.8067 H   0  0  0  0  0  0  0  0  0  0  0  0
   19.2344   20.1786   23.0861 C   0  0  0  0  0  0  0  0  0  0  0  0
   19.3701   19.8839   24.1295 H   0  0  0  0  0  0  0  0  0  0  0  0
   19.5814   21.2084   22.9706 H   0  0  0  0  0  0  0  0  0  0  0  0
   20.0565   19.2493   22.1731 C   0  0  0  0  0  0  0  0  0  0  0  0
   19.6987   18.2170   22.2771 H   0  0  0  0  0  0  0  0  0  0  0  0
   19.8853   19.5308   21.1257 H   0  0  0  0  0  0  0  0  0  0  0  0
   21.5759   19.3151   22.4668 C   0  0  0  0  0  0  0  0  0  0  0  0
   21.9381   20.3267   22.2371 H   0  0  0  0  0  0  0  0  0  0  0  0
   22.1049   18.6475   21.7735 H   0  0  0  0  0  0  0  0  0  0  0  0
   21.9729   18.9671   23.9270 C   0  0  0  0  0  0  0  0  0  0  0  0
   23.0663   19.0271   24.0167 H   0  0  0  0  0  0  0  0  0  0  0  0
   21.5796   19.7362   24.6054 H   0  0  0  0  0  0  0  0  0  0  0  0
   21.5064   17.5748   24.4235 C   0  0  0  0  0  0  0  0  0  0  0  0
   20.4095   17.5266   24.4442 H   0  0  0  0  0  0  0  0  0  0  0  0
   21.8322   17.4474   25.4653 H   0  0  0  0  0  0  0  0  0  0  0  0
   22.0645   16.4050   23.5814 C   0  0  0  0  0  0  0  0  0  0  0  0
   21.6779   16.4274   22.5550 H   0  0  0  0  0  0  0  0  0  0  0  0
   21.7764   15.4420   24.0222 H   0  0  0  0  0  0  0  0  0  0  0  0
   23.1608   16.4391   23.5366 H   0  0  0  0  0  0  0  0  0  0  0  0
   17.0133   21.0883   23.7358 C   0  0  0  0  0  0  0  0  0  0  0  0
   17.3915   22.1041   23.6020 H   0  0  0  0  0  0  0  0  0  0  0  0
   15.9450   21.0597   23.5102 H   0  0  0  0  0  0  0  0  0  0  0  0
   17.1819   20.7630   24.7648 H   0  0  0  0  0  0  0  0  0  0  0  0
  1  2  1  0  0  0  0
  1  3  1  0  0  0  0
  1  4  1  0  0  0  0
  4  5  1  0  0  0  0
  4  6  1  0  0  0  0
  4  7  1  0  0  0  0
  7  8  1  0  0  0  0
  7  9  1  0  0  0  0
  7 10  1  0  0  0  0
 10 11  1  0  0  0  0
 10 12  1  0  0  0  0
 10 13  1  0  0  0  0
 13 14  1  0  0  0  0
 13 15  1  0  0  0  0
 13 16  1  0  0  0  0
 16 17  1  0  0  0  0
 16 18  1  0  0  0  0
 16 19  1  0  0  0  0
 19 20  1  0  0  0  0
 19 21  1  0  0  0  0
 19 22  1  0  0  0  0
  1 23  1  0  0  0  0
 23 24  1  0  0  0  0
 23 25  1  0  0  0  0
 23 26  1  0  0  0  0
M  END
> <VConfSearch Rank>
418

> <Conf_Id>
71

> <Delta U+W>
1.096

> <U+W>
22.938

> <U>
72.455

> <W>
-49.517

> <W(PB)>
-51.795

> <W(SA)>
2.278

> <Valence>
2.908

> <Coulomb>
69.435

> <VdW>
0.112

> <VdW6>
-7.766

> <VdW12>
7.877

> <Bond>
0.233

> <Angle>
1.170

> <Pdih>
1.506

> <Idih>
0.000

> <Tether>
0.000

$$$$
VeraChem MOL file


 26 25  0  0  0  0  0  0  0  0999 V2000     
   20.5210   21.5109   23.0753 N   0  3  0  0  0  0  0  0  0  0  0  0
   20.4309   20.8783   22.2663 H   0  0  0  0  0  0  0  0  0  0  0  0
   21.3535   22.0878   22.8760 H   0  0  0  0  0  0  0  0  0  0  0  0
   20.7511   20.7032   24.3427 C   0  0  0  0  0  0  0  0  0  0  0  0
   20.8219   21.4066   25.1762 H   0  0  0  0  0  0  0  0  0  0  0  0
   21.7191   20.2065   24.2421 H   0  0  0  0  0  0  0  0  0  0  0  0
   19.6690   19.6435   24.6514 C   0  0  0  0  0  0  0  0  0  0  0  0
   19.9434   19.1221   25.5779 H   0  0  0  0  0  0  0  0  0  0  0  0
   18.7164   20.1473   24.8603 H   0  0  0  0  0  0  0  0  0  0  0  0
   19.4594   18.6025   23.5227 C   0  0  0  0  0  0  0  0  0  0  0  0
   19.1075   19.1056   22.6123 H   0  0  0  0  0  0  0  0  0  0  0  0
   18.6508   17.9266   23.8297 H   0  0  0  0  0  0  0  0  0  0  0  0
   20.7335   17.7773   23.2090 C   0  0  0  0  0  0  0  0  0  0  0  0
   21.5520   18.4540   22.9309 H   0  0  0  0  0  0  0  0  0  0  0  0
   21.0641   17.2490   24.1139 H   0  0  0  0  0  0  0  0  0  0  0  0
   20.5403   16.7592   22.0588 C   0  0  0  0  0  0  0  0  0  0  0  0
   21.5126   16.3027   21.8263 H   0  0  0  0  0  0  0  0  0  0  0  0
   20.2221   17.2836   21.1470 H   0  0  0  0  0  0  0  0  0  0  0  0
   19.5318   15.6360   22.3917 C   0  0  0  0  0  0  0  0  0  0  0  0
   18.5140   16.0281   22.5086 H   0  0  0  0  0  0  0  0  0  0  0  0
   19.8097   15.1172   23.3183 H   0  0  0  0  0  0  0  0  0  0  0  0
   19.5066   14.8915   21.5855 H   0  0  0  0  0  0  0  0  0  0  0  0
   19.2908   22.4015   23.2050 C   0  0  0  0  0  0  0  0  0  0  0  0
   19.1753   22.9869   22.2902 H   0  0  0  0  0  0  0  0  0  0  0  0
   18.4077   21.7773   23.3558 H   0  0  0  0  0  0  0  0  0  0  0  0
   19.4215   23.0714   24.0576 H   0  0  0  0  0  0  0  0  0  0  0  0
  1  2  1  0  0  0  0
  1  3  1  0  0  0  0
  1  4  1  0  0  0  0
  4  5  1  0  0  0  0
  4  6  1  0  0  0  0
  4  7  1  0  0  0  0
  7  8  1  0  0  0  0
  7  9  1  0  0  0  0
  7 10  1  0  0  0  0
 10 11  1  0  0  0  0
 10 12  1  0  0  0  0
 10 13  1  0  0  0  0
 13 14  1  0  0  0  0
 13 15  1  0  0  0  0
 13 16  1  0  0  0  0
 16 17  1  0  0  0  0
 16 18  1  0  0  0  0
 16 19  1  0  0  0  0
 19 20  1  0  0  0  0
 19 21  1  0  0  0  0
 19 22  1  0  0  0  0
  1 23  1  0  0  0  0
 23 24  1  0  0  0  0
 23 25  1  0  0  0  0
 23 26  1  0  0  0  0
M  END
> <VConfSearch Rank>
419

> <Conf_Id>
84

> <Delta U+W>
1.456

> <U+W>
23.298

> <U>
73.042

> <W>
-49.744

> <W(PB)>
-51.966

> <W(SA)>
2.222

> <Valence>
2.938

> <Coulomb>
69.625

> <VdW>
0.478

> <VdW6>
-8.182

> <VdW12>
8.660

> <Bond>
0.253

> <Angle>
1.038

> <Pdih>
1.647

> <Idih>
0.000

> <Tether>
0.000

$$$$
VeraChem MOL file


 26 25  0  0  0  0  0  0  0  0999 V2000     
   18.2411   19.2651   21.6544 N   0  3  0  0  0  0  0  0  0  0  0  0
   18.6969   20.0781   22.0954 H   0  0  0  0  0  0  0  0  0  0  0  0
   17.2403   19.3458   21.8919 H   0  0  0  0  0  0  0  0  0  0  0  0
   18.8102   17.9804   22.2238 C   0  0  0  0  0  0  0  0  0  0  0  0
   19.8664   17.9292   21.9490 H   0  0  0  0  0  0  0  0  0  0  0  0
   18.2935   17.1469   21.7413 H   0  0  0  0  0  0  0  0  0  0  0  0
   18.6629   17.8571   23.7545 C   0  0  0  0  0  0  0  0  0  0  0  0
   17.5960   17.8567   24.0144 H   0  0  0  0  0  0  0  0  0  0  0  0
   19.0537   16.8798   24.0674 H   0  0  0  0  0  0  0  0  0  0  0  0
   19.3843   18.9739   24.5507 C   0  0  0  0  0  0  0  0  0  0  0  0
   19.2109   18.8056   25.6226 H   0  0  0  0  0  0  0  0  0  0  0  0
   18.9343   19.9486   24.3197 H   0  0  0  0  0  0  0  0  0  0  0  0
   20.9084   19.0248   24.2854 C   0  0  0  0  0  0  0  0  0  0  0  0
   21.3503   18.0408   24.4950 H   0  0  0  0  0  0  0  0  0  0  0  0
   21.0993   19.2397   23.2256 H   0  0  0  0  0  0  0  0  0  0  0  0
   21.6064   20.0966   25.1520 C   0  0  0  0  0  0  0  0  0  0  0  0
   21.4310   19.8859   26.2164 H   0  0  0  0  0  0  0  0  0  0  0  0
   21.1669   21.0831   24.9480 H   0  0  0  0  0  0  0  0  0  0  0  0
   23.1258   20.1481   24.8845 C   0  0  0  0  0  0  0  0  0  0  0  0
   23.5997   19.1844   25.1121 H   0  0  0  0  0  0  0  0  0  0  0  0
   23.6037   20.9140   25.5091 H   0  0  0  0  0  0  0  0  0  0  0  0
   23.3341   20.3920   23.8346 H   0  0  0  0  0  0  0  0  0  0  0  0
   18.4377   19.2957   20.1452 C   0  0  0  0  0  0  0  0  0  0  0  0
   17.9215   18.4430   19.6987 H   0  0  0  0  0  0  0  0  0  0  0  0
   18.0246   20.2259   19.7488 H   0  0  0  0  0  0  0  0  0  0  0  0
   19.5053   19.2409   19.9209 H   0  0  0  0  0  0  0  0  0  0  0  0
  1  2  1  0  0  0  0
  1  3  1  0  0  0  0
  1  4  1  0  0  0  0
  4  5  1  0  0  0  0
  4  6  1  0  0  0  0
  4  7  1  0  0  0  0
  7  8  1  0  0  0  0
  7  9  1  0  0  0  0
  7 10  1  0  0  0  0
 10 11  1  0  0  0  0
 10 12  1  0  0  0  0
 10 13  1  0  0  0  0
 13 14  1  0  0  0  0
 13 15  1  0  0  0  0
 13 16  1  0  0  0  0
 16 17  1  0  0  0  0
 16 18  1  0  0  0  0
 16 19  1  0  0  0  0
 19 20  1  0  0  0  0
 19 21  1  0  0  0  0
 19 22  1  0  0  0  0
  1 23  1  0  0  0  0
 23 24  1  0  0  0  0
 23 25  1  0  0  0  0
 23 26  1  0  0  0  0
M  END
> <VConfSearch Rank>
420

> <Conf_Id>
73

> <Delta U+W>
0.884

> <U+W>
22.726

> <U>
71.905

> <W>
-49.179

> <W(PB)>
-51.494

> <W(SA)>
2.315

> <Valence>
2.125

> <Coulomb>
69.686

> <VdW>
0.093

> <VdW6>
-6.766

> <VdW12>
6.859

> <Bond>
0.169

> <Angle>
0.621

> <Pdih>
1.336

> <Idih>
0.000

> <Tether>
0.000

$$$$
VeraChem MOL file


 26 25  0  0  0  0  0  0  0  0999 V2000     
   17.5341   17.0951   22.8491 N   0  3  0  0  0  0  0  0  0  0  0  0
   17.4712   16.7889   23.8326 H   0  0  0  0  0  0  0  0  0  0  0  0
   18.0669   16.3558   22.3650 H   0  0  0  0  0  0  0  0  0  0  0  0
   18.2718   18.4159   22.7588 C   0  0  0  0  0  0  0  0  0  0  0  0
   17.6807   19.1670   23.2888 H   0  0  0  0  0  0  0  0  0  0  0  0
   18.3237   18.6995   21.7046 H   0  0  0  0  0  0  0  0  0  0  0  0
   19.6918   18.3618   23.3511 C   0  0  0  0  0  0  0  0  0  0  0  0
   19.6362   18.0604   24.4057 H   0  0  0  0  0  0  0  0  0  0  0  0
   20.2770   17.5945   22.8268 H   0  0  0  0  0  0  0  0  0  0  0  0
   20.4042   19.7278   23.2372 C   0  0  0  0  0  0  0  0  0  0  0  0
   19.8129   20.4937   23.7583 H   0  0  0  0  0  0  0  0  0  0  0  0
   20.4528   20.0284   22.1812 H   0  0  0  0  0  0  0  0  0  0  0  0
   21.8316   19.6854   23.8289 C   0  0  0  0  0  0  0  0  0  0  0  0
   21.7832   19.3850   24.8848 H   0  0  0  0  0  0  0  0  0  0  0  0
   22.4230   18.9197   23.3078 H   0  0  0  0  0  0  0  0  0  0  0  0
   22.5438   21.0518   23.7147 C   0  0  0  0  0  0  0  0  0  0  0  0
   21.9573   21.8209   24.2366 H   0  0  0  0  0  0  0  0  0  0  0  0
   22.5971   21.3557   22.6598 H   0  0  0  0  0  0  0  0  0  0  0  0
   23.9688   21.0057   24.3066 C   0  0  0  0  0  0  0  0  0  0  0  0
   24.4579   21.9842   24.2163 H   0  0  0  0  0  0  0  0  0  0  0  0
   24.5908   20.2688   23.7818 H   0  0  0  0  0  0  0  0  0  0  0  0
   23.9459   20.7376   25.3709 H   0  0  0  0  0  0  0  0  0  0  0  0
   16.1443   17.2354   22.2435 C   0  0  0  0  0  0  0  0  0  0  0  0
   16.2372   17.5273   21.1951 H   0  0  0  0  0  0  0  0  0  0  0  0
   15.6241   16.2776   22.3150 H   0  0  0  0  0  0  0  0  0  0  0  0
   15.5887   17.9988   22.7925 H   0  0  0  0  0  0  0  0  0  0  0  0
  1  2  1  0  0  0  0
  1  3  1  0  0  0  0
  1  4  1  0  0  0  0
  4  5  1  0  0  0  0
  4  6  1  0  0  0  0
  4  7  1  0  0  0  0
  7  8  1  0  0  0  0
  7  9  1  0  0  0  0
  7 10  1  0  0  0  0
 10 11  1  0  0  0  0
 10 12  1  0  0  0  0
 10 13  1  0  0  0  0
 13 14  1  0  0  0  0
 13 15  1  0  0  0  0
 13 16  1  0  0  0  0
 16 17  1  0  0  0  0
 16 18  1  0  0  0  0
 16 19  1  0  0  0  0
 19 20  1  0  0  0  0
 19 21  1  0  0  0  0
 19 22  1  0  0  0  0
  1 23  1  0  0  0  0
 23 24  1  0  0  0  0
 23 25  1  0  0  0  0
 23 26  1  0  0  0  0
M  END
> <VConfSearch Rank>
421

> <Conf_Id>
11

> <Delta U+W>
0.000

> <U+W>
21.842

> <U>
70.357

> <W>
-48.515

> <W(PB)>
-50.856

> <W(SA)>
2.341

> <Valence>
1.714

> <Coulomb>
68.480

> <VdW>
0.163

> <VdW6>
-5.268

> <VdW12>
5.431

> <Bond>
0.126

> <Angle>
0.350

> <Pdih>
1.238

> <Idih>
0.000

> <Tether>
0.000

$$$$
VeraChem MOL file


 26 25  0  0  0  0  0  0  0  0999 V2000     
   20.9496   20.6531   20.4418 N   0  3  0  0  0  0  0  0  0  0  0  0
   21.1813   20.4205   19.4629 H   0  0  0  0  0  0  0  0  0  0  0  0
   21.8298   21.0081   20.8463 H   0  0  0  0  0  0  0  0  0  0  0  0
   20.5053   19.3963   21.1714 C   0  0  0  0  0  0  0  0  0  0  0  0
   21.2483   18.6217   20.9652 H   0  0  0  0  0  0  0  0  0  0  0  0
   19.5532   19.0760   20.7409 H   0  0  0  0  0  0  0  0  0  0  0  0
   20.3623   19.5592   22.6983 C   0  0  0  0  0  0  0  0  0  0  0  0
   21.3085   19.9287   23.1153 H   0  0  0  0  0  0  0  0  0  0  0  0
   19.5959   20.3128   22.9211 H   0  0  0  0  0  0  0  0  0  0  0  0
   19.9826   18.2231   23.3744 C   0  0  0  0  0  0  0  0  0  0  0  0
   20.7489   17.4681   23.1497 H   0  0  0  0  0  0  0  0  0  0  0  0
   19.0387   17.8535   22.9498 H   0  0  0  0  0  0  0  0  0  0  0  0
   19.8373   18.3721   24.9061 C   0  0  0  0  0  0  0  0  0  0  0  0
   20.7810   18.7419   25.3307 H   0  0  0  0  0  0  0  0  0  0  0  0
   19.0708   19.1267   25.1310 H   0  0  0  0  0  0  0  0  0  0  0  0
   19.4576   17.0356   25.5820 C   0  0  0  0  0  0  0  0  0  0  0  0
   20.2227   16.2778   25.3620 H   0  0  0  0  0  0  0  0  0  0  0  0
   18.5127   16.6626   25.1623 H   0  0  0  0  0  0  0  0  0  0  0  0
   19.3133   17.1883   27.1113 C   0  0  0  0  0  0  0  0  0  0  0  0
   19.0436   16.2295   27.5729 H   0  0  0  0  0  0  0  0  0  0  0  0
   18.5304   17.9154   27.3635 H   0  0  0  0  0  0  0  0  0  0  0  0
   20.2537   17.5275   27.5648 H   0  0  0  0  0  0  0  0  0  0  0  0
   19.8657   21.7247   20.4762 C   0  0  0  0  0  0  0  0  0  0  0  0
   19.6731   22.0115   21.5119 H   0  0  0  0  0  0  0  0  0  0  0  0
   20.2064   22.5955   19.9117 H   0  0  0  0  0  0  0  0  0  0  0  0
   18.9537   21.3271   20.0256 H   0  0  0  0  0  0  0  0  0  0  0  0
  1  2  1  0  0  0  0
  1  3  1  0  0  0  0
  1  4  1  0  0  0  0
  4  5  1  0  0  0  0
  4  6  1  0  0  0  0
  4  7  1  0  0  0  0
  7  8  1  0  0  0  0
  7  9  1  0  0  0  0
  7 10  1  0  0  0  0
 10 11  1  0  0  0  0
 10 12  1  0  0  0  0
 10 13  1  0  0  0  0
 13 14  1  0  0  0  0
 13 15  1  0  0  0  0
 13 16  1  0  0  0  0
 16 17  1  0  0  0  0
 16 18  1  0  0  0  0
 16 19  1  0  0  0  0
 19 20  1  0  0  0  0
 19 21  1  0  0  0  0
 19 22  1  0  0  0  0
  1 23  1  0  0  0  0
 23 24  1  0  0  0  0
 23 25  1  0  0  0  0
 23 26  1  0  0  0  0
M  END
> <VConfSearch Rank>
422

> <Conf_Id>
102

> <Delta U+W>
0.121

> <U+W>
21.963

> <U>
70.745

> <W>
-48.782

> <W(PB)>
-51.111

> <W(SA)>
2.329

> <Valence>
1.993

> <Coulomb>
68.323

> <VdW>
0.429

> <VdW6>
-5.973

> <VdW12>
6.402

> <Bond>
0.161

> <Angle>
0.472

> <Pdih>
1.360

> <Idih>
0.000

> <Tether>
0.000

$$$$
VeraChem MOL file


 26 25  0  0  0  0  0  0  0  0999 V2000     
   21.9052   16.9140   25.1648 N   0  3  0  0  0  0  0  0  0  0  0  0
   21.5433   17.2791   26.0594 H   0  0  0  0  0  0  0  0  0  0  0  0
   22.8965   16.6924   25.3494 H   0  0  0  0  0  0  0  0  0  0  0  0
   21.8152   17.9813   24.0869 C   0  0  0  0  0  0  0  0  0  0  0  0
   22.1697   17.5442   23.1500 H   0  0  0  0  0  0  0  0  0  0  0  0
   22.5014   18.7844   24.3673 H   0  0  0  0  0  0  0  0  0  0  0  0
   20.4051   18.5739   23.8887 C   0  0  0  0  0  0  0  0  0  0  0  0
   19.7108   17.7834   23.5759 H   0  0  0  0  0  0  0  0  0  0  0  0
   20.0371   18.9659   24.8461 H   0  0  0  0  0  0  0  0  0  0  0  0
   20.4111   19.7014   22.8328 C   0  0  0  0  0  0  0  0  0  0  0  0
   20.7861   19.3067   21.8781 H   0  0  0  0  0  0  0  0  0  0  0  0
   21.1077   20.4920   23.1450 H   0  0  0  0  0  0  0  0  0  0  0  0
   19.0033   20.3052   22.6252 C   0  0  0  0  0  0  0  0  0  0  0  0
   18.3067   19.5150   22.3126 H   0  0  0  0  0  0  0  0  0  0  0  0
   18.6281   20.6997   23.5798 H   0  0  0  0  0  0  0  0  0  0  0  0
   19.0096   21.4330   21.5692 C   0  0  0  0  0  0  0  0  0  0  0  0
   19.3821   21.0428   20.6116 H   0  0  0  0  0  0  0  0  0  0  0  0
   19.7032   22.2275   21.8786 H   0  0  0  0  0  0  0  0  0  0  0  0
   17.6023   22.0333   21.3645 C   0  0  0  0  0  0  0  0  0  0  0  0
   16.8930   21.2690   21.0211 H   0  0  0  0  0  0  0  0  0  0  0  0
   17.6271   22.8319   20.6117 H   0  0  0  0  0  0  0  0  0  0  0  0
   17.2165   22.4628   22.2982 H   0  0  0  0  0  0  0  0  0  0  0  0
   21.1600   15.6490   24.7540 C   0  0  0  0  0  0  0  0  0  0  0  0
   21.5764   15.2761   23.8156 H   0  0  0  0  0  0  0  0  0  0  0  0
   21.2787   14.8950   25.5353 H   0  0  0  0  0  0  0  0  0  0  0  0
   20.1006   15.8790   24.6242 H   0  0  0  0  0  0  0  0  0  0  0  0
  1  2  1  0  0  0  0
  1  3  1  0  0  0  0
  1  4  1  0  0  0  0
  4  5  1  0  0  0  0
  4  6  1  0  0  0  0
  4  7  1  0  0  0  0
  7  8  1  0  0  0  0
  7  9  1  0  0  0  0
  7 10  1  0  0  0  0
 10 11  1  0  0  0  0
 10 12  1  0  0  0  0
 10 13  1  0  0  0  0
 13 14  1  0  0  0  0
 13 15  1  0  0  0  0
 13 16  1  0  0  0  0
 16 17  1  0  0  0  0
 16 18  1  0  0  0  0
 16 19  1  0  0  0  0
 19 20  1  0  0  0  0
 19 21  1  0  0  0  0
 19 22  1  0  0  0  0
  1 23  1  0  0  0  0
 23 24  1  0  0  0  0
 23 25  1  0  0  0  0
 23 26  1  0  0  0  0
M  END
> <VConfSearch Rank>
423

> <Conf_Id>
37

> <Delta U+W>
0.125

> <U+W>
21.967

> <U>
70.745

> <W>
-48.778

> <W(PB)>
-51.115

> <W(SA)>
2.337

> <Valence>
1.993

> <Coulomb>
68.323

> <VdW>
0.429

> <VdW6>
-5.973

> <VdW12>
6.403

> <Bond>
0.161

> <Angle>
0.472

> <Pdih>
1.360

> <Idih>
0.000

> <Tether>
0.000

$$$$
VeraChem MOL file


 26 25  0  0  0  0  0  0  0  0999 V2000     
   21.5887   21.2462   24.7622 N   0  3  0  0  0  0  0  0  0  0  0  0
   21.0871   21.5364   25.6160 H   0  0  0  0  0  0  0  0  0  0  0  0
   21.4286   22.0030   24.0792 H   0  0  0  0  0  0  0  0  0  0  0  0
   21.0209   19.9418   24.2400 C   0  0  0  0  0  0  0  0  0  0  0  0
   21.2009   19.1719   24.9945 H   0  0  0  0  0  0  0  0  0  0  0  0
   21.5753   19.6761   23.3369 H   0  0  0  0  0  0  0  0  0  0  0  0
   19.5142   20.0166   23.9253 C   0  0  0  0  0  0  0  0  0  0  0  0
   18.9754   20.3303   24.8293 H   0  0  0  0  0  0  0  0  0  0  0  0
   19.3327   20.7898   23.1670 H   0  0  0  0  0  0  0  0  0  0  0  0
   18.9349   18.6664   23.4403 C   0  0  0  0  0  0  0  0  0  0  0  0
   17.8464   18.7736   23.3474 H   0  0  0  0  0  0  0  0  0  0  0  0
   19.1079   17.8974   24.2059 H   0  0  0  0  0  0  0  0  0  0  0  0
   19.5292   18.2006   22.0865 C   0  0  0  0  0  0  0  0  0  0  0  0
   19.3380   18.9608   21.3166 H   0  0  0  0  0  0  0  0  0  0  0  0
   20.6205   18.1170   22.1735 H   0  0  0  0  0  0  0  0  0  0  0  0
   18.9792   16.8342   21.6098 C   0  0  0  0  0  0  0  0  0  0  0  0
   19.1778   16.0671   22.3713 H   0  0  0  0  0  0  0  0  0  0  0  0
   19.5333   16.5258   20.7121 H   0  0  0  0  0  0  0  0  0  0  0  0
   17.4697   16.8585   21.2769 C   0  0  0  0  0  0  0  0  0  0  0  0
   16.8612   17.0381   22.1717 H   0  0  0  0  0  0  0  0  0  0  0  0
   17.1547   15.8963   20.8529 H   0  0  0  0  0  0  0  0  0  0  0  0
   17.2398   17.6401   20.5412 H   0  0  0  0  0  0  0  0  0  0  0  0
   23.0763   21.0874   25.0445 C   0  0  0  0  0  0  0  0  0  0  0  0
   23.5900   20.8131   24.1205 H   0  0  0  0  0  0  0  0  0  0  0  0
   23.4725   22.0335   25.4200 H   0  0  0  0  0  0  0  0  0  0  0  0
   23.2182   20.3050   25.7933 H   0  0  0  0  0  0  0  0  0  0  0  0
  1  2  1  0  0  0  0
  1  3  1  0  0  0  0
  1  4  1  0  0  0  0
  4  5  1  0  0  0  0
  4  6  1  0  0  0  0
  4  7  1  0  0  0  0
  7  8  1  0  0  0  0
  7  9  1  0  0  0  0
  7 10  1  0  0  0  0
 10 11  1  0  0  0  0
 10 12  1  0  0  0  0
 10 13  1  0  0  0  0
 13 14  1  0  0  0  0
 13 15  1  0  0  0  0
 13 16  1  0  0  0  0
 16 17  1  0  0  0  0
 16 18  1  0  0  0  0
 16 19  1  0  0  0  0
 19 20  1  0  0  0  0
 19 21  1  0  0  0  0
 19 22  1  0  0  0  0
  1 23  1  0  0  0  0
 23 24  1  0  0  0  0
 23 25  1  0  0  0  0
 23 26  1  0  0  0  0
M  END
> <VConfSearch Rank>
424

> <Conf_Id>
137

> <Delta U+W>
1.038

> <U+W>
22.880

> <U>
71.810

> <W>
-48.930

> <W(PB)>
-51.257

> <W(SA)>
2.327

> <Valence>
2.568

> <Coulomb>
68.877

> <VdW>
0.364

> <VdW6>
-6.470

> <VdW12>
6.834

> <Bond>
0.191

> <Angle>
0.752

> <Pdih>
1.626

> <Idih>
0.000

> <Tether>
0.000

$$$$
VeraChem MOL file


 26 25  0  0  0  0  0  0  0  0999 V2000     
   22.6912   17.6517   23.1258 N   0  3  0  0  0  0  0  0  0  0  0  0
   22.1735   16.7826   23.3293 H   0  0  0  0  0  0  0  0  0  0  0  0
   23.0369   17.9857   24.0389 H   0  0  0  0  0  0  0  0  0  0  0  0
   21.7647   18.6804   22.5093 C   0  0  0  0  0  0  0  0  0  0  0  0
   21.4157   18.2862   21.5515 H   0  0  0  0  0  0  0  0  0  0  0  0
   22.3480   19.5845   22.3175 H   0  0  0  0  0  0  0  0  0  0  0  0
   20.5562   19.0229   23.3995 C   0  0  0  0  0  0  0  0  0  0  0  0
   19.9896   18.1050   23.6005 H   0  0  0  0  0  0  0  0  0  0  0  0
   20.9118   19.4032   24.3663 H   0  0  0  0  0  0  0  0  0  0  0  0
   19.6439   20.0768   22.7287 C   0  0  0  0  0  0  0  0  0  0  0  0
   19.2484   19.6775   21.7844 H   0  0  0  0  0  0  0  0  0  0  0  0
   20.2493   20.9544   22.4620 H   0  0  0  0  0  0  0  0  0  0  0  0
   18.4714   20.5440   23.6263 C   0  0  0  0  0  0  0  0  0  0  0  0
   18.8673   20.9597   24.5632 H   0  0  0  0  0  0  0  0  0  0  0  0
   17.9524   21.3692   23.1190 H   0  0  0  0  0  0  0  0  0  0  0  0
   17.4489   19.4266   23.9423 C   0  0  0  0  0  0  0  0  0  0  0  0
   17.9286   18.6251   24.5196 H   0  0  0  0  0  0  0  0  0  0  0  0
   17.0911   18.9751   23.0064 H   0  0  0  0  0  0  0  0  0  0  0  0
   16.2442   19.9668   24.7423 C   0  0  0  0  0  0  0  0  0  0  0  0
   16.5672   20.3985   25.6986 H   0  0  0  0  0  0  0  0  0  0  0  0
   15.5309   19.1613   24.9603 H   0  0  0  0  0  0  0  0  0  0  0  0
   15.7118   20.7440   24.1788 H   0  0  0  0  0  0  0  0  0  0  0  0
   23.8546   17.3722   22.1843 C   0  0  0  0  0  0  0  0  0  0  0  0
   24.4064   18.2985   22.0103 H   0  0  0  0  0  0  0  0  0  0  0  0
   24.5139   16.6301   22.6401 H   0  0  0  0  0  0  0  0  0  0  0  0
   23.4666   16.9891   21.2379 H   0  0  0  0  0  0  0  0  0  0  0  0
  1  2  1  0  0  0  0
  1  3  1  0  0  0  0
  1  4  1  0  0  0  0
  4  5  1  0  0  0  0
  4  6  1  0  0  0  0
  4  7  1  0  0  0  0
  7  8  1  0  0  0  0
  7  9  1  0  0  0  0
  7 10  1  0  0  0  0
 10 11  1  0  0  0  0
 10 12  1  0  0  0  0
 10 13  1  0  0  0  0
 13 14  1  0  0  0  0
 13 15  1  0  0  0  0
 13 16  1  0  0  0  0
 16 17  1  0  0  0  0
 16 18  1  0  0  0  0
 16 19  1  0  0  0  0
 19 20  1  0  0  0  0
 19 21  1  0  0  0  0
 19 22  1  0  0  0  0
  1 23  1  0  0  0  0
 23 24  1  0  0  0  0
 23 25  1  0  0  0  0
 23 26  1  0  0  0  0
M  END
> <VConfSearch Rank>
425

> <Conf_Id>
35

> <Delta U+W>
0.670

> <U+W>
22.512

> <U>
71.348

> <W>
-48.837

> <W(PB)>
-51.150

> <W(SA)>
2.313

> <Valence>
2.262

> <Coulomb>
68.807

> <VdW>
0.280

> <VdW6>
-5.915

> <VdW12>
6.195

> <Bond>
0.164

> <Angle>
0.622

> <Pdih>
1.475

> <Idih>
0.000

> <Tether>
0.000

$$$$
VeraChem MOL file


 26 25  0  0  0  0  0  0  0  0999 V2000     
   19.6590   16.3341   24.4257 N   0  3  0  0  0  0  0  0  0  0  0  0
   19.1982   15.9457   23.5881 H   0  0  0  0  0  0  0  0  0  0  0  0
   18.8981   16.7323   24.9979 H   0  0  0  0  0  0  0  0  0  0  0  0
   20.6378   17.4206   24.0276 C   0  0  0  0  0  0  0  0  0  0  0  0
   21.4199   16.9602   23.4187 H   0  0  0  0  0  0  0  0  0  0  0  0
   21.0962   17.8098   24.9402 H   0  0  0  0  0  0  0  0  0  0  0  0
   19.9830   18.5733   23.2448 C   0  0  0  0  0  0  0  0  0  0  0  0
   19.5099   18.1751   22.3373 H   0  0  0  0  0  0  0  0  0  0  0  0
   19.1877   19.0147   23.8584 H   0  0  0  0  0  0  0  0  0  0  0  0
   21.0215   19.6533   22.8599 C   0  0  0  0  0  0  0  0  0  0  0  0
   21.8490   19.1750   22.3175 H   0  0  0  0  0  0  0  0  0  0  0  0
   21.4599   20.0868   23.7696 H   0  0  0  0  0  0  0  0  0  0  0  0
   20.4421   20.7835   21.9735 C   0  0  0  0  0  0  0  0  0  0  0  0
   21.2684   21.4342   21.6553 H   0  0  0  0  0  0  0  0  0  0  0  0
   20.0196   20.3520   21.0556 H   0  0  0  0  0  0  0  0  0  0  0  0
   19.3716   21.6436   22.6864 C   0  0  0  0  0  0  0  0  0  0  0  0
   19.7768   22.0333   23.6307 H   0  0  0  0  0  0  0  0  0  0  0  0
   18.4996   21.0280   22.9440 H   0  0  0  0  0  0  0  0  0  0  0  0
   18.9082   22.8225   21.8040 C   0  0  0  0  0  0  0  0  0  0  0  0
   19.7473   23.4864   21.5585 H   0  0  0  0  0  0  0  0  0  0  0  0
   18.1476   23.4199   22.3232 H   0  0  0  0  0  0  0  0  0  0  0  0
   18.4702   22.4632   20.8637 H   0  0  0  0  0  0  0  0  0  0  0  0
   20.3857   15.2377   25.1922 C   0  0  0  0  0  0  0  0  0  0  0  0
   20.8365   15.6656   26.0903 H   0  0  0  0  0  0  0  0  0  0  0  0
   19.6697   14.4619   25.4727 H   0  0  0  0  0  0  0  0  0  0  0  0
   21.1631   14.8093   24.5558 H   0  0  0  0  0  0  0  0  0  0  0  0
  1  2  1  0  0  0  0
  1  3  1  0  0  0  0
  1  4  1  0  0  0  0
  4  5  1  0  0  0  0
  4  6  1  0  0  0  0
  4  7  1  0  0  0  0
  7  8  1  0  0  0  0
  7  9  1  0  0  0  0
  7 10  1  0  0  0  0
 10 11  1  0  0  0  0
 10 12  1  0  0  0  0
 10 13  1  0  0  0  0
 13 14  1  0  0  0  0
 13 15  1  0  0  0  0
 13 16  1  0  0  0  0
 16 17  1  0  0  0  0
 16 18  1  0  0  0  0
 16 19  1  0  0  0  0
 19 20  1  0  0  0  0
 19 21  1  0  0  0  0
 19 22  1  0  0  0  0
  1 23  1  0  0  0  0
 23 24  1  0  0  0  0
 23 25  1  0  0  0  0
 23 26  1  0  0  0  0
M  END
> <VConfSearch Rank>
426

> <Conf_Id>
36

> <Delta U+W>
0.662

> <U+W>
22.504

> <U>
71.348

> <W>
-48.844

> <W(PB)>
-51.157

> <W(SA)>
2.313

> <Valence>
2.262

> <Coulomb>
68.807

> <VdW>
0.280

> <VdW6>
-5.916

> <VdW12>
6.195

> <Bond>
0.164

> <Angle>
0.622

> <Pdih>
1.475

> <Idih>
0.000

> <Tether>
0.000

$$$$
VeraChem MOL file


 26 25  0  0  0  0  0  0  0  0999 V2000     
   17.7406   20.7683   22.5066 N   0  3  0  0  0  0  0  0  0  0  0  0
   17.4079   20.9560   23.4652 H   0  0  0  0  0  0  0  0  0  0  0  0
   16.9633   20.2779   22.0374 H   0  0  0  0  0  0  0  0  0  0  0  0
   18.9705   19.8838   22.5436 C   0  0  0  0  0  0  0  0  0  0  0  0
   19.7635   20.4380   23.0513 H   0  0  0  0  0  0  0  0  0  0  0  0
   19.2831   19.7007   21.5125 H   0  0  0  0  0  0  0  0  0  0  0  0
   18.7327   18.5401   23.2593 C   0  0  0  0  0  0  0  0  0  0  0  0
   18.4169   18.7240   24.2948 H   0  0  0  0  0  0  0  0  0  0  0  0
   17.9047   18.0129   22.7669 H   0  0  0  0  0  0  0  0  0  0  0  0
   19.9831   17.6292   23.2511 C   0  0  0  0  0  0  0  0  0  0  0  0
   20.2804   17.4244   22.2132 H   0  0  0  0  0  0  0  0  0  0  0  0
   19.7155   16.6598   23.6941 H   0  0  0  0  0  0  0  0  0  0  0  0
   21.1790   18.2309   24.0280 C   0  0  0  0  0  0  0  0  0  0  0  0
   21.4895   19.1774   23.5655 H   0  0  0  0  0  0  0  0  0  0  0  0
   20.8689   18.4655   25.0557 H   0  0  0  0  0  0  0  0  0  0  0  0
   22.3849   17.2656   24.0631 C   0  0  0  0  0  0  0  0  0  0  0  0
   22.6990   17.0268   23.0373 H   0  0  0  0  0  0  0  0  0  0  0  0
   22.0880   16.3170   24.5322 H   0  0  0  0  0  0  0  0  0  0  0  0
   23.5776   17.8673   24.8366 C   0  0  0  0  0  0  0  0  0  0  0  0
   23.9206   18.8002   24.3704 H   0  0  0  0  0  0  0  0  0  0  0  0
   24.4232   17.1675   24.8510 H   0  0  0  0  0  0  0  0  0  0  0  0
   23.3037   18.0858   25.8771 H   0  0  0  0  0  0  0  0  0  0  0  0
   18.0613   22.0714   21.7877 C   0  0  0  0  0  0  0  0  0  0  0  0
   18.3789   21.8495   20.7666 H   0  0  0  0  0  0  0  0  0  0  0  0
   17.1674   22.6989   21.7678 H   0  0  0  0  0  0  0  0  0  0  0  0
   18.8626   22.5879   22.3207 H   0  0  0  0  0  0  0  0  0  0  0  0
  1  2  1  0  0  0  0
  1  3  1  0  0  0  0
  1  4  1  0  0  0  0
  4  5  1  0  0  0  0
  4  6  1  0  0  0  0
  4  7  1  0  0  0  0
  7  8  1  0  0  0  0
  7  9  1  0  0  0  0
  7 10  1  0  0  0  0
 10 11  1  0  0  0  0
 10 12  1  0  0  0  0
 10 13  1  0  0  0  0
 13 14  1  0  0  0  0
 13 15  1  0  0  0  0
 13 16  1  0  0  0  0
 16 17  1  0  0  0  0
 16 18  1  0  0  0  0
 16 19  1  0  0  0  0
 19 20  1  0  0  0  0
 19 21  1  0  0  0  0
 19 22  1  0  0  0  0
  1 23  1  0  0  0  0
 23 24  1  0  0  0  0
 23 25  1  0  0  0  0
 23 26  1  0  0  0  0
M  END
> <VConfSearch Rank>
427

> <Conf_Id>
46

> <Delta U+W>
0.496

> <U+W>
22.338

> <U>
71.138

> <W>
-48.799

> <W(PB)>
-51.136

> <W(SA)>
2.337

> <Valence>
2.016

> <Coulomb>
68.932

> <VdW>
0.190

> <VdW6>
-5.902

> <VdW12>
6.092

> <Bond>
0.149

> <Angle>
0.477

> <Pdih>
1.390

> <Idih>
0.000

> <Tether>
0.000

$$$$
VeraChem MOL file


 26 25  0  0  0  0  0  0  0  0999 V2000     
   16.9937   19.3146   23.8007 N   0  3  0  0  0  0  0  0  0  0  0  0
   16.4885   20.0618   23.2993 H   0  0  0  0  0  0  0  0  0  0  0  0
   17.0681   19.6409   24.7768 H   0  0  0  0  0  0  0  0  0  0  0  0
   18.3745   19.1264   23.2054 C   0  0  0  0  0  0  0  0  0  0  0  0
   18.2516   18.7924   22.1720 H   0  0  0  0  0  0  0  0  0  0  0  0
   18.8736   18.3334   23.7671 H   0  0  0  0  0  0  0  0  0  0  0  0
   19.2310   20.4069   23.2375 C   0  0  0  0  0  0  0  0  0  0  0  0
   18.6988   21.2081   22.7077 H   0  0  0  0  0  0  0  0  0  0  0  0
   19.3531   20.7436   24.2757 H   0  0  0  0  0  0  0  0  0  0  0  0
   20.6212   20.2125   22.5872 C   0  0  0  0  0  0  0  0  0  0  0  0
   21.1376   21.1821   22.5635 H   0  0  0  0  0  0  0  0  0  0  0  0
   20.4958   19.9021   21.5405 H   0  0  0  0  0  0  0  0  0  0  0  0
   21.5039   19.1839   23.3348 C   0  0  0  0  0  0  0  0  0  0  0  0
   21.5997   19.4794   24.3888 H   0  0  0  0  0  0  0  0  0  0  0  0
   21.0223   18.1970   23.3236 H   0  0  0  0  0  0  0  0  0  0  0  0
   22.9096   19.0680   22.7041 C   0  0  0  0  0  0  0  0  0  0  0  0
   23.4050   20.0490   22.7178 H   0  0  0  0  0  0  0  0  0  0  0  0
   22.8198   18.7734   21.6491 H   0  0  0  0  0  0  0  0  0  0  0  0
   23.7884   18.0408   23.4494 C   0  0  0  0  0  0  0  0  0  0  0  0
   23.9247   18.3266   24.5006 H   0  0  0  0  0  0  0  0  0  0  0  0
   24.7820   17.9731   22.9875 H   0  0  0  0  0  0  0  0  0  0  0  0
   23.3361   17.0409   23.4229 H   0  0  0  0  0  0  0  0  0  0  0  0
   16.2176   18.0066   23.7324 C   0  0  0  0  0  0  0  0  0  0  0  0
   15.2253   18.1559   24.1639 H   0  0  0  0  0  0  0  0  0  0  0  0
   16.1233   17.6990   22.6886 H   0  0  0  0  0  0  0  0  0  0  0  0
   16.7539   17.2408   24.2970 H   0  0  0  0  0  0  0  0  0  0  0  0
  1  2  1  0  0  0  0
  1  3  1  0  0  0  0
  1  4  1  0  0  0  0
  4  5  1  0  0  0  0
  4  6  1  0  0  0  0
  4  7  1  0  0  0  0
  7  8  1  0  0  0  0
  7  9  1  0  0  0  0
  7 10  1  0  0  0  0
 10 11  1  0  0  0  0
 10 12  1  0  0  0  0
 10 13  1  0  0  0  0
 13 14  1  0  0  0  0
 13 15  1  0  0  0  0
 13 16  1  0  0  0  0
 16 17  1  0  0  0  0
 16 18  1  0  0  0  0
 16 19  1  0  0  0  0
 19 20  1  0  0  0  0
 19 21  1  0  0  0  0
 19 22  1  0  0  0  0
  1 23  1  0  0  0  0
 23 24  1  0  0  0  0
 23 25  1  0  0  0  0
 23 26  1  0  0  0  0
M  END
> <VConfSearch Rank>
428

> <Conf_Id>
45

> <Delta U+W>
0.471

> <U+W>
22.313

> <U>
71.138

> <W>
-48.825

> <W(PB)>
-51.169

> <W(SA)>
2.344

> <Valence>
2.016

> <Coulomb>
68.932

> <VdW>
0.190

> <VdW6>
-5.902

> <VdW12>
6.092

> <Bond>
0.149

> <Angle>
0.477

> <Pdih>
1.390

> <Idih>
0.000

> <Tether>
0.000

$$$$
VeraChem MOL file


 26 25  0  0  0  0  0  0  0  0999 V2000     
   21.6176   17.1094   22.6145 N   0  3  0  0  0  0  0  0  0  0  0  0
   22.1413   17.7170   23.2624 H   0  0  0  0  0  0  0  0  0  0  0  0
   21.6869   17.5647   21.6912 H   0  0  0  0  0  0  0  0  0  0  0  0
   20.1660   17.0191   23.0442 C   0  0  0  0  0  0  0  0  0  0  0  0
   20.1342   16.5417   24.0267 H   0  0  0  0  0  0  0  0  0  0  0  0
   19.6510   16.3692   22.3321 H   0  0  0  0  0  0  0  0  0  0  0  0
   19.4471   18.3812   23.1058 C   0  0  0  0  0  0  0  0  0  0  0  0
   19.4832   18.8509   22.1148 H   0  0  0  0  0  0  0  0  0  0  0  0
   18.3873   18.2041   23.3321 H   0  0  0  0  0  0  0  0  0  0  0  0
   20.0504   19.3245   24.1766 C   0  0  0  0  0  0  0  0  0  0  0  0
   21.0850   19.5823   23.9134 H   0  0  0  0  0  0  0  0  0  0  0  0
   20.0989   18.7903   25.1358 H   0  0  0  0  0  0  0  0  0  0  0  0
   19.2366   20.6261   24.3809 C   0  0  0  0  0  0  0  0  0  0  0  0
   18.2061   20.3754   24.6683 H   0  0  0  0  0  0  0  0  0  0  0  0
   19.6669   21.1765   25.2290 H   0  0  0  0  0  0  0  0  0  0  0  0
   19.2220   21.5481   23.1384 C   0  0  0  0  0  0  0  0  0  0  0  0
   18.7264   21.0445   22.2979 H   0  0  0  0  0  0  0  0  0  0  0  0
   20.2526   21.7593   22.8206 H   0  0  0  0  0  0  0  0  0  0  0  0
   18.4929   22.8782   23.4250 C   0  0  0  0  0  0  0  0  0  0  0  0
   17.4494   22.7014   23.7167 H   0  0  0  0  0  0  0  0  0  0  0  0
   18.4893   23.5184   22.5333 H   0  0  0  0  0  0  0  0  0  0  0  0
   18.9850   23.4324   24.2349 H   0  0  0  0  0  0  0  0  0  0  0  0
   22.2334   15.7179   22.5724 C   0  0  0  0  0  0  0  0  0  0  0  0
   21.6823   15.1029   21.8575 H   0  0  0  0  0  0  0  0  0  0  0  0
   23.2778   15.7974   22.2625 H   0  0  0  0  0  0  0  0  0  0  0  0
   22.1767   15.2698   23.5669 H   0  0  0  0  0  0  0  0  0  0  0  0
  1  2  1  0  0  0  0
  1  3  1  0  0  0  0
  1  4  1  0  0  0  0
  4  5  1  0  0  0  0
  4  6  1  0  0  0  0
  4  7  1  0  0  0  0
  7  8  1  0  0  0  0
  7  9  1  0  0  0  0
  7 10  1  0  0  0  0
 10 11  1  0  0  0  0
 10 12  1  0  0  0  0
 10 13  1  0  0  0  0
 13 14  1  0  0  0  0
 13 15  1  0  0  0  0
 13 16  1  0  0  0  0
 16 17  1  0  0  0  0
 16 18  1  0  0  0  0
 16 19  1  0  0  0  0
 19 20  1  0  0  0  0
 19 21  1  0  0  0  0
 19 22  1  0  0  0  0
  1 23  1  0  0  0  0
 23 24  1  0  0  0  0
 23 25  1  0  0  0  0
 23 26  1  0  0  0  0
M  END
> <VConfSearch Rank>
429

> <Conf_Id>
143

> <Delta U+W>
0.915

> <U+W>
22.757

> <U>
71.994

> <W>
-49.237

> <W(PB)>
-51.537

> <W(SA)>
2.300

> <Valence>
2.376

> <Coulomb>
69.315

> <VdW>
0.303

> <VdW6>
-6.508

> <VdW12>
6.810

> <Bond>
0.182

> <Angle>
0.660

> <Pdih>
1.534

> <Idih>
0.000

> <Tether>
0.000

$$$$
VeraChem MOL file


 26 25  0  0  0  0  0  0  0  0999 V2000     
   21.0545   17.9222   25.4292 N   0  3  0  0  0  0  0  0  0  0  0  0
   20.3519   17.2125   25.1732 H   0  0  0  0  0  0  0  0  0  0  0  0
   20.5721   18.5694   26.0719 H   0  0  0  0  0  0  0  0  0  0  0  0
   21.5200   18.6660   24.1921 C   0  0  0  0  0  0  0  0  0  0  0  0
   22.0155   17.9489   23.5327 H   0  0  0  0  0  0  0  0  0  0  0  0
   22.2607   19.4032   24.5121 H   0  0  0  0  0  0  0  0  0  0  0  0
   20.3887   19.3800   23.4259 C   0  0  0  0  0  0  0  0  0  0  0  0
   19.8729   20.0779   24.0985 H   0  0  0  0  0  0  0  0  0  0  0  0
   20.8497   19.9814   22.6329 H   0  0  0  0  0  0  0  0  0  0  0  0
   19.3742   18.3927   22.7990 C   0  0  0  0  0  0  0  0  0  0  0  0
   18.9904   17.7192   23.5765 H   0  0  0  0  0  0  0  0  0  0  0  0
   19.8916   17.7536   22.0701 H   0  0  0  0  0  0  0  0  0  0  0  0
   18.1590   19.0723   22.1159 C   0  0  0  0  0  0  0  0  0  0  0  0
   17.4964   18.2747   21.7523 H   0  0  0  0  0  0  0  0  0  0  0  0
   17.5704   19.6284   22.8585 H   0  0  0  0  0  0  0  0  0  0  0  0
   18.5125   19.9889   20.9161 C   0  0  0  0  0  0  0  0  0  0  0  0
   17.7212   19.8950   20.1590 H   0  0  0  0  0  0  0  0  0  0  0  0
   19.4362   19.6445   20.4305 H   0  0  0  0  0  0  0  0  0  0  0  0
   18.6299   21.4832   21.2983 C   0  0  0  0  0  0  0  0  0  0  0  0
   19.4177   21.6600   22.0386 H   0  0  0  0  0  0  0  0  0  0  0  0
   17.6854   21.8560   21.7155 H   0  0  0  0  0  0  0  0  0  0  0  0
   18.8639   22.0886   20.4131 H   0  0  0  0  0  0  0  0  0  0  0  0
   22.2441   17.2701   26.1200 C   0  0  0  0  0  0  0  0  0  0  0  0
   22.9589   18.0432   26.4102 H   0  0  0  0  0  0  0  0  0  0  0  0
   21.8953   16.7382   27.0081 H   0  0  0  0  0  0  0  0  0  0  0  0
   22.7182   16.5671   25.4315 H   0  0  0  0  0  0  0  0  0  0  0  0
  1  2  1  0  0  0  0
  1  3  1  0  0  0  0
  1  4  1  0  0  0  0
  4  5  1  0  0  0  0
  4  6  1  0  0  0  0
  4  7  1  0  0  0  0
  7  8  1  0  0  0  0
  7  9  1  0  0  0  0
  7 10  1  0  0  0  0
 10 11  1  0  0  0  0
 10 12  1  0  0  0  0
 10 13  1  0  0  0  0
 13 14  1  0  0  0  0
 13 15  1  0  0  0  0
 13 16  1  0  0  0  0
 16 17  1  0  0  0  0
 16 18  1  0  0  0  0
 16 19  1  0  0  0  0
 19 20  1  0  0  0  0
 19 21  1  0  0  0  0
 19 22  1  0  0  0  0
  1 23  1  0  0  0  0
 23 24  1  0  0  0  0
 23 25  1  0  0  0  0
 23 26  1  0  0  0  0
M  END
> <VConfSearch Rank>
430

> <Conf_Id>
76

> <Delta U+W>
3.468

> <U+W>
25.310

> <U>
74.594

> <W>
-49.283

> <W(PB)>
-51.537

> <W(SA)>
2.253

> <Valence>
4.886

> <Coulomb>
69.332

> <VdW>
0.376

> <VdW6>
-7.329

> <VdW12>
7.705

> <Bond>
0.232

> <Angle>
1.251

> <Pdih>
3.403

> <Idih>
0.000

> <Tether>
0.000

$$$$
VeraChem MOL file


 26 25  0  0  0  0  0  0  0  0999 V2000     
   17.9676   17.5619   24.2203 N   0  3  0  0  0  0  0  0  0  0  0  0
   18.6854   16.8742   24.4973 H   0  0  0  0  0  0  0  0  0  0  0  0
   17.5781   17.2097   23.3320 H   0  0  0  0  0  0  0  0  0  0  0  0
   18.6002   18.9230   24.0107 C   0  0  0  0  0  0  0  0  0  0  0  0
   19.0055   19.2556   24.9697 H   0  0  0  0  0  0  0  0  0  0  0  0
   17.8108   19.6170   23.7112 H   0  0  0  0  0  0  0  0  0  0  0  0
   19.7163   18.9194   22.9505 C   0  0  0  0  0  0  0  0  0  0  0  0
   20.4908   18.2027   23.2455 H   0  0  0  0  0  0  0  0  0  0  0  0
   19.3065   18.5683   21.9941 H   0  0  0  0  0  0  0  0  0  0  0  0
   20.3219   20.3317   22.7658 C   0  0  0  0  0  0  0  0  0  0  0  0
   20.6843   20.7220   23.7269 H   0  0  0  0  0  0  0  0  0  0  0  0
   19.5168   21.0089   22.4480 H   0  0  0  0  0  0  0  0  0  0  0  0
   21.4550   20.3861   21.7076 C   0  0  0  0  0  0  0  0  0  0  0  0
   21.2908   19.6247   20.9328 H   0  0  0  0  0  0  0  0  0  0  0  0
   21.3924   21.3530   21.1892 H   0  0  0  0  0  0  0  0  0  0  0  0
   22.8886   20.2594   22.2840 C   0  0  0  0  0  0  0  0  0  0  0  0
   23.0805   21.0878   22.9802 H   0  0  0  0  0  0  0  0  0  0  0  0
   23.6067   20.3823   21.4611 H   0  0  0  0  0  0  0  0  0  0  0  0
   23.1747   18.9177   22.9935 C   0  0  0  0  0  0  0  0  0  0  0  0
   22.9289   18.0661   22.3461 H   0  0  0  0  0  0  0  0  0  0  0  0
   22.6006   18.8284   23.9239 H   0  0  0  0  0  0  0  0  0  0  0  0
   24.2376   18.8427   23.2572 H   0  0  0  0  0  0  0  0  0  0  0  0
   16.8794   17.6543   25.2809 C   0  0  0  0  0  0  0  0  0  0  0  0
   17.3208   17.9968   26.2195 H   0  0  0  0  0  0  0  0  0  0  0  0
   16.1156   18.3619   24.9511 H   0  0  0  0  0  0  0  0  0  0  0  0
   16.4320   16.6678   25.4221 H   0  0  0  0  0  0  0  0  0  0  0  0
  1  2  1  0  0  0  0
  1  3  1  0  0  0  0
  1  4  1  0  0  0  0
  4  5  1  0  0  0  0
  4  6  1  0  0  0  0
  4  7  1  0  0  0  0
  7  8  1  0  0  0  0
  7  9  1  0  0  0  0
  7 10  1  0  0  0  0
 10 11  1  0  0  0  0
 10 12  1  0  0  0  0
 10 13  1  0  0  0  0
 13 14  1  0  0  0  0
 13 15  1  0  0  0  0
 13 16  1  0  0  0  0
 16 17  1  0  0  0  0
 16 18  1  0  0  0  0
 16 19  1  0  0  0  0
 19 20  1  0  0  0  0
 19 21  1  0  0  0  0
 19 22  1  0  0  0  0
  1 23  1  0  0  0  0
 23 24  1  0  0  0  0
 23 25  1  0  0  0  0
 23 26  1  0  0  0  0
M  END
> <VConfSearch Rank>
431

> <Conf_Id>
123

> <Delta U+W>
3.101

> <U+W>
24.943

> <U>
74.070

> <W>
-49.127

> <W(PB)>
-51.421

> <W(SA)>
2.295

> <Valence>
4.690

> <Coulomb>
69.115

> <VdW>
0.266

> <VdW6>
-6.809

> <VdW12>
7.075

> <Bond>
0.212

> <Angle>
1.133

> <Pdih>
3.345

> <Idih>
0.000

> <Tether>
0.000

$$$$
VeraChem MOL file


 26 25  0  0  0  0  0  0  0  0999 V2000     
   19.7075   16.6326   22.5008 N   0  3  0  0  0  0  0  0  0  0  0  0
   19.1052   16.7568   21.6723 H   0  0  0  0  0  0  0  0  0  0  0  0
   19.0815   16.7277   23.3145 H   0  0  0  0  0  0  0  0  0  0  0  0
   20.7748   17.7094   22.5361 C   0  0  0  0  0  0  0  0  0  0  0  0
   21.4125   17.5698   21.6595 H   0  0  0  0  0  0  0  0  0  0  0  0
   21.3840   17.5514   23.4296 H   0  0  0  0  0  0  0  0  0  0  0  0
   20.2160   19.1460   22.5373 C   0  0  0  0  0  0  0  0  0  0  0  0
   21.0588   19.8409   22.4515 H   0  0  0  0  0  0  0  0  0  0  0  0
   19.6000   19.2983   21.6411 H   0  0  0  0  0  0  0  0  0  0  0  0
   19.3859   19.4630   23.8076 C   0  0  0  0  0  0  0  0  0  0  0  0
   19.9622   19.2212   24.7114 H   0  0  0  0  0  0  0  0  0  0  0  0
   18.5059   18.8063   23.8229 H   0  0  0  0  0  0  0  0  0  0  0  0
   18.8928   20.9324   23.8694 C   0  0  0  0  0  0  0  0  0  0  0  0
   18.7510   21.3306   22.8552 H   0  0  0  0  0  0  0  0  0  0  0  0
   17.8958   20.9398   24.3314 H   0  0  0  0  0  0  0  0  0  0  0  0
   19.7952   21.8850   24.6950 C   0  0  0  0  0  0  0  0  0  0  0  0
   19.8472   21.5337   25.7351 H   0  0  0  0  0  0  0  0  0  0  0  0
   19.3164   22.8735   24.7322 H   0  0  0  0  0  0  0  0  0  0  0  0
   21.2264   22.0492   24.1381 C   0  0  0  0  0  0  0  0  0  0  0  0
   21.2091   22.3442   23.0810 H   0  0  0  0  0  0  0  0  0  0  0  0
   21.8006   21.1194   24.2331 H   0  0  0  0  0  0  0  0  0  0  0  0
   21.7673   22.8259   24.6941 H   0  0  0  0  0  0  0  0  0  0  0  0
   20.3593   15.2569   22.4868 C   0  0  0  0  0  0  0  0  0  0  0  0
   20.9652   15.1374   23.3877 H   0  0  0  0  0  0  0  0  0  0  0  0
   19.5804   14.4916   22.4619 H   0  0  0  0  0  0  0  0  0  0  0  0
   20.9919   15.1683   21.6009 H   0  0  0  0  0  0  0  0  0  0  0  0
  1  2  1  0  0  0  0
  1  3  1  0  0  0  0
  1  4  1  0  0  0  0
  4  5  1  0  0  0  0
  4  6  1  0  0  0  0
  4  7  1  0  0  0  0
  7  8  1  0  0  0  0
  7  9  1  0  0  0  0
  7 10  1  0  0  0  0
 10 11  1  0  0  0  0
 10 12  1  0  0  0  0
 10 13  1  0  0  0  0
 13 14  1  0  0  0  0
 13 15  1  0  0  0  0
 13 16  1  0  0  0  0
 16 17  1  0  0  0  0
 16 18  1  0  0  0  0
 16 19  1  0  0  0  0
 19 20  1  0  0  0  0
 19 21  1  0  0  0  0
 19 22  1  0  0  0  0
  1 23  1  0  0  0  0
 23 24  1  0  0  0  0
 23 25  1  0  0  0  0
 23 26  1  0  0  0  0
M  END
> <VConfSearch Rank>
432

> <Conf_Id>
111

> <Delta U+W>
3.383

> <U+W>
25.225

> <U>
74.516

> <W>
-49.292

> <W(PB)>
-51.558

> <W(SA)>
2.266

> <Valence>
4.842

> <Coulomb>
69.333

> <VdW>
0.342

> <VdW6>
-7.369

> <VdW12>
7.711

> <Bond>
0.232

> <Angle>
1.153

> <Pdih>
3.457

> <Idih>
0.000

> <Tether>
0.000

$$$$
VeraChem MOL file


 26 25  0  0  0  0  0  0  0  0999 V2000     
   19.8630   16.7435   22.9682 N   0  3  0  0  0  0  0  0  0  0  0  0
   20.7301   16.2143   23.1494 H   0  0  0  0  0  0  0  0  0  0  0  0
   20.0952   17.4054   22.2125 H   0  0  0  0  0  0  0  0  0  0  0  0
   19.4465   17.5036   24.2121 C   0  0  0  0  0  0  0  0  0  0  0  0
   19.2211   16.7688   24.9892 H   0  0  0  0  0  0  0  0  0  0  0  0
   18.5267   18.0466   23.9827 H   0  0  0  0  0  0  0  0  0  0  0  0
   20.5172   18.4856   24.7315 C   0  0  0  0  0  0  0  0  0  0  0  0
   20.1483   18.9519   25.6547 H   0  0  0  0  0  0  0  0  0  0  0  0
   21.4154   17.9202   25.0132 H   0  0  0  0  0  0  0  0  0  0  0  0
   20.9067   19.5938   23.7204 C   0  0  0  0  0  0  0  0  0  0  0  0
   21.3585   19.1435   22.8266 H   0  0  0  0  0  0  0  0  0  0  0  0
   21.6893   20.2120   24.1790 H   0  0  0  0  0  0  0  0  0  0  0  0
   19.7121   20.4917   23.3084 C   0  0  0  0  0  0  0  0  0  0  0  0
   18.9187   19.8716   22.8710 H   0  0  0  0  0  0  0  0  0  0  0  0
   19.2786   20.9636   24.2009 H   0  0  0  0  0  0  0  0  0  0  0  0
   20.0891   21.5846   22.2787 C   0  0  0  0  0  0  0  0  0  0  0  0
   19.1710   22.0954   21.9561 H   0  0  0  0  0  0  0  0  0  0  0  0
   20.5125   21.1177   21.3784 H   0  0  0  0  0  0  0  0  0  0  0  0
   21.0754   22.6391   22.8308 C   0  0  0  0  0  0  0  0  0  0  0  0
   22.0562   22.1997   23.0501 H   0  0  0  0  0  0  0  0  0  0  0  0
   20.6897   23.0976   23.7506 H   0  0  0  0  0  0  0  0  0  0  0  0
   21.2310   23.4404   22.0969 H   0  0  0  0  0  0  0  0  0  0  0  0
   18.7445   15.8069   22.5336 C   0  0  0  0  0  0  0  0  0  0  0  0
   19.0573   15.2671   21.6370 H   0  0  0  0  0  0  0  0  0  0  0  0
   18.5377   15.0974   23.3378 H   0  0  0  0  0  0  0  0  0  0  0  0
   17.8487   16.3931   22.3177 H   0  0  0  0  0  0  0  0  0  0  0  0
  1  2  1  0  0  0  0
  1  3  1  0  0  0  0
  1  4  1  0  0  0  0
  4  5  1  0  0  0  0
  4  6  1  0  0  0  0
  4  7  1  0  0  0  0
  7  8  1  0  0  0  0
  7  9  1  0  0  0  0
  7 10  1  0  0  0  0
 10 11  1  0  0  0  0
 10 12  1  0  0  0  0
 10 13  1  0  0  0  0
 13 14  1  0  0  0  0
 13 15  1  0  0  0  0
 13 16  1  0  0  0  0
 16 17  1  0  0  0  0
 16 18  1  0  0  0  0
 16 19  1  0  0  0  0
 19 20  1  0  0  0  0
 19 21  1  0  0  0  0
 19 22  1  0  0  0  0
  1 23  1  0  0  0  0
 23 24  1  0  0  0  0
 23 25  1  0  0  0  0
 23 26  1  0  0  0  0
M  END
> <VConfSearch Rank>
433

> <Conf_Id>
126

> <Delta U+W>
1.519

> <U+W>
23.361

> <U>
72.579

> <W>
-49.218

> <W(PB)>
-51.496

> <W(SA)>
2.279

> <Valence>
2.678

> <Coulomb>
69.622

> <VdW>
0.279

> <VdW6>
-7.328

> <VdW12>
7.608

> <Bond>
0.212

> <Angle>
0.911

> <Pdih>
1.555

> <Idih>
0.000

> <Tether>
0.000

$$$$
VeraChem MOL file


 26 25  0  0  0  0  0  0  0  0999 V2000     
   22.4026   18.6208   23.1102 N   0  3  0  0  0  0  0  0  0  0  0  0
   21.7061   18.3530   22.3987 H   0  0  0  0  0  0  0  0  0  0  0  0
   22.6962   17.7383   23.5569 H   0  0  0  0  0  0  0  0  0  0  0  0
   21.7674   19.5385   24.1364 C   0  0  0  0  0  0  0  0  0  0  0  0
   21.4740   20.4600   23.6282 H   0  0  0  0  0  0  0  0  0  0  0  0
   22.5327   19.7885   24.8756 H   0  0  0  0  0  0  0  0  0  0  0  0
   20.5460   18.9247   24.8518 C   0  0  0  0  0  0  0  0  0  0  0  0
   20.8665   18.0325   25.4060 H   0  0  0  0  0  0  0  0  0  0  0  0
   20.1843   19.6378   25.6044 H   0  0  0  0  0  0  0  0  0  0  0  0
   19.3789   18.5465   23.9046 C   0  0  0  0  0  0  0  0  0  0  0  0
   18.5824   18.0958   24.5107 H   0  0  0  0  0  0  0  0  0  0  0  0
   19.7042   17.7685   23.2014 H   0  0  0  0  0  0  0  0  0  0  0  0
   18.8115   19.7577   23.1210 C   0  0  0  0  0  0  0  0  0  0  0  0
   18.4605   20.5235   23.8264 H   0  0  0  0  0  0  0  0  0  0  0  0
   19.6127   20.2241   22.5327 H   0  0  0  0  0  0  0  0  0  0  0  0
   17.6627   19.3822   22.1536 C   0  0  0  0  0  0  0  0  0  0  0  0
   18.0114   18.6251   21.4375 H   0  0  0  0  0  0  0  0  0  0  0  0
   17.4000   20.2684   21.5590 H   0  0  0  0  0  0  0  0  0  0  0  0
   16.3923   18.8727   22.8721 C   0  0  0  0  0  0  0  0  0  0  0  0
   16.0421   19.5982   23.6177 H   0  0  0  0  0  0  0  0  0  0  0  0
   16.5705   17.9165   23.3791 H   0  0  0  0  0  0  0  0  0  0  0  0
   15.5802   18.7156   22.1504 H   0  0  0  0  0  0  0  0  0  0  0  0
   23.5918   19.3138   22.4600 C   0  0  0  0  0  0  0  0  0  0  0  0
   23.2504   20.2271   21.9680 H   0  0  0  0  0  0  0  0  0  0  0  0
   24.3278   19.5602   23.2284 H   0  0  0  0  0  0  0  0  0  0  0  0
   24.0386   18.6426   21.7231 H   0  0  0  0  0  0  0  0  0  0  0  0
  1  2  1  0  0  0  0
  1  3  1  0  0  0  0
  1  4  1  0  0  0  0
  4  5  1  0  0  0  0
  4  6  1  0  0  0  0
  4  7  1  0  0  0  0
  7  8  1  0  0  0  0
  7  9  1  0  0  0  0
  7 10  1  0  0  0  0
 10 11  1  0  0  0  0
 10 12  1  0  0  0  0
 10 13  1  0  0  0  0
 13 14  1  0  0  0  0
 13 15  1  0  0  0  0
 13 16  1  0  0  0  0
 16 17  1  0  0  0  0
 16 18  1  0  0  0  0
 16 19  1  0  0  0  0
 19 20  1  0  0  0  0
 19 21  1  0  0  0  0
 19 22  1  0  0  0  0
  1 23  1  0  0  0  0
 23 24  1  0  0  0  0
 23 25  1  0  0  0  0
 23 26  1  0  0  0  0
M  END
> <VConfSearch Rank>
434

> <Conf_Id>
134

> <Delta U+W>
1.464

> <U+W>
23.306

> <U>
72.579

> <W>
-49.273

> <W(PB)>
-51.540

> <W(SA)>
2.267

> <Valence>
2.677

> <Coulomb>
69.622

> <VdW>
0.280

> <VdW6>
-7.328

> <VdW12>
7.608

> <Bond>
0.212

> <Angle>
0.911

> <Pdih>
1.555

> <Idih>
0.000

> <Tether>
0.000

$$$$
VeraChem MOL file


 26 25  0  0  0  0  0  0  0  0999 V2000     
   20.1708   17.3033   25.4843 N   0  3  0  0  0  0  0  0  0  0  0  0
   19.9928   16.5710   24.7794 H   0  0  0  0  0  0  0  0  0  0  0  0
   19.2549   17.4935   25.9200 H   0  0  0  0  0  0  0  0  0  0  0  0
   20.7016   18.5554   24.8155 C   0  0  0  0  0  0  0  0  0  0  0  0
   21.6650   18.3102   24.3613 H   0  0  0  0  0  0  0  0  0  0  0  0
   20.8681   19.3056   25.5926 H   0  0  0  0  0  0  0  0  0  0  0  0
   19.7531   19.1219   23.7435 C   0  0  0  0  0  0  0  0  0  0  0  0
   19.5788   18.3543   22.9789 H   0  0  0  0  0  0  0  0  0  0  0  0
   18.7814   19.3521   24.2002 H   0  0  0  0  0  0  0  0  0  0  0  0
   20.3374   20.3972   23.0919 C   0  0  0  0  0  0  0  0  0  0  0  0
   21.2906   20.1602   22.6008 H   0  0  0  0  0  0  0  0  0  0  0  0
   20.5778   21.1229   23.8814 H   0  0  0  0  0  0  0  0  0  0  0  0
   19.3754   21.0754   22.0821 C   0  0  0  0  0  0  0  0  0  0  0  0
   18.4738   21.4073   22.6152 H   0  0  0  0  0  0  0  0  0  0  0  0
   19.8518   21.9893   21.7011 H   0  0  0  0  0  0  0  0  0  0  0  0
   18.9484   20.1950   20.8796 C   0  0  0  0  0  0  0  0  0  0  0  0
   18.2725   20.7804   20.2407 H   0  0  0  0  0  0  0  0  0  0  0  0
   18.3609   19.3350   21.2278 H   0  0  0  0  0  0  0  0  0  0  0  0
   20.1381   19.7025   20.0245 C   0  0  0  0  0  0  0  0  0  0  0  0
   20.7520   20.5448   19.6801 H   0  0  0  0  0  0  0  0  0  0  0  0
   19.7779   19.1650   19.1378 H   0  0  0  0  0  0  0  0  0  0  0  0
   20.7815   19.0154   20.5880 H   0  0  0  0  0  0  0  0  0  0  0  0
   21.1658   16.8110   26.5261 C   0  0  0  0  0  0  0  0  0  0  0  0
   21.3126   17.5891   27.2784 H   0  0  0  0  0  0  0  0  0  0  0  0
   20.7714   15.9093   27.0002 H   0  0  0  0  0  0  0  0  0  0  0  0
   22.1158   16.5851   26.0369 H   0  0  0  0  0  0  0  0  0  0  0  0
  1  2  1  0  0  0  0
  1  3  1  0  0  0  0
  1  4  1  0  0  0  0
  4  5  1  0  0  0  0
  4  6  1  0  0  0  0
  4  7  1  0  0  0  0
  7  8  1  0  0  0  0
  7  9  1  0  0  0  0
  7 10  1  0  0  0  0
 10 11  1  0  0  0  0
 10 12  1  0  0  0  0
 10 13  1  0  0  0  0
 13 14  1  0  0  0  0
 13 15  1  0  0  0  0
 13 16  1  0  0  0  0
 16 17  1  0  0  0  0
 16 18  1  0  0  0  0
 16 19  1  0  0  0  0
 19 20  1  0  0  0  0
 19 21  1  0  0  0  0
 19 22  1  0  0  0  0
  1 23  1  0  0  0  0
 23 24  1  0  0  0  0
 23 25  1  0  0  0  0
 23 26  1  0  0  0  0
M  END
> <VConfSearch Rank>
435

> <Conf_Id>
30

> <Delta U+W>
0.910

> <U+W>
22.752

> <U>
71.870

> <W>
-49.118

> <W(PB)>
-51.409

> <W(SA)>
2.290

> <Valence>
2.682

> <Coulomb>
68.933

> <VdW>
0.255

> <VdW6>
-6.833

> <VdW12>
7.088

> <Bond>
0.205

> <Angle>
1.003

> <Pdih>
1.473

> <Idih>
0.000

> <Tether>
0.000

$$$$
VeraChem MOL file


 26 25  0  0  0  0  0  0  0  0999 V2000     
   19.7411   19.6551   26.0462 N   0  3  0  0  0  0  0  0  0  0  0  0
   18.7153   19.6629   26.1574 H   0  0  0  0  0  0  0  0  0  0  0  0
   19.9957   20.6184   25.7778 H   0  0  0  0  0  0  0  0  0  0  0  0
   20.1410   18.6844   24.9532 C   0  0  0  0  0  0  0  0  0  0  0  0
   19.8475   17.6811   25.2721 H   0  0  0  0  0  0  0  0  0  0  0  0
   21.2298   18.7120   24.8621 H   0  0  0  0  0  0  0  0  0  0  0  0
   19.4993   19.0033   23.5908 C   0  0  0  0  0  0  0  0  0  0  0  0
   18.4058   18.9903   23.6900 H   0  0  0  0  0  0  0  0  0  0  0  0
   19.7860   20.0189   23.2898 H   0  0  0  0  0  0  0  0  0  0  0  0
   19.9363   17.9862   22.5106 C   0  0  0  0  0  0  0  0  0  0  0  0
   19.7117   16.9707   22.8654 H   0  0  0  0  0  0  0  0  0  0  0  0
   21.0263   18.0258   22.3822 H   0  0  0  0  0  0  0  0  0  0  0  0
   19.2340   18.1920   21.1433 C   0  0  0  0  0  0  0  0  0  0  0  0
   19.5707   17.4065   20.4527 H   0  0  0  0  0  0  0  0  0  0  0  0
   18.1536   18.0369   21.2696 H   0  0  0  0  0  0  0  0  0  0  0  0
   19.4656   19.5741   20.4805 C   0  0  0  0  0  0  0  0  0  0  0  0
   19.0255   20.3696   21.0966 H   0  0  0  0  0  0  0  0  0  0  0  0
   18.9217   19.5993   19.5259 H   0  0  0  0  0  0  0  0  0  0  0  0
   20.9555   19.8858   20.2120 C   0  0  0  0  0  0  0  0  0  0  0  0
   21.5201   19.9883   21.1470 H   0  0  0  0  0  0  0  0  0  0  0  0
   21.0576   20.8289   19.6598 H   0  0  0  0  0  0  0  0  0  0  0  0
   21.4227   19.0937   19.6127 H   0  0  0  0  0  0  0  0  0  0  0  0
   20.4172   19.2691   27.3546 C   0  0  0  0  0  0  0  0  0  0  0  0
   20.1208   19.9758   28.1330 H   0  0  0  0  0  0  0  0  0  0  0  0
   20.1072   18.2601   27.6350 H   0  0  0  0  0  0  0  0  0  0  0  0
   21.5008   19.3000   27.2217 H   0  0  0  0  0  0  0  0  0  0  0  0
  1  2  1  0  0  0  0
  1  3  1  0  0  0  0
  1  4  1  0  0  0  0
  4  5  1  0  0  0  0
  4  6  1  0  0  0  0
  4  7  1  0  0  0  0
  7  8  1  0  0  0  0
  7  9  1  0  0  0  0
  7 10  1  0  0  0  0
 10 11  1  0  0  0  0
 10 12  1  0  0  0  0
 10 13  1  0  0  0  0
 13 14  1  0  0  0  0
 13 15  1  0  0  0  0
 13 16  1  0  0  0  0
 16 17  1  0  0  0  0
 16 18  1  0  0  0  0
 16 19  1  0  0  0  0
 19 20  1  0  0  0  0
 19 21  1  0  0  0  0
 19 22  1  0  0  0  0
  1 23  1  0  0  0  0
 23 24  1  0  0  0  0
 23 25  1  0  0  0  0
 23 26  1  0  0  0  0
M  END
> <VConfSearch Rank>
436

> <Conf_Id>
29

> <Delta U+W>
0.886

> <U+W>
22.729

> <U>
71.870

> <W>
-49.141

> <W(PB)>
-51.404

> <W(SA)>
2.262

> <Valence>
2.682

> <Coulomb>
68.933

> <VdW>
0.255

> <VdW6>
-6.833

> <VdW12>
7.088

> <Bond>
0.205

> <Angle>
1.003

> <Pdih>
1.473

> <Idih>
0.000

> <Tether>
0.000

$$$$
VeraChem MOL file


 26 25  0  0  0  0  0  0  0  0999 V2000     
   18.4062   20.8835   22.2199 N   0  3  0  0  0  0  0  0  0  0  0  0
   18.6315   21.1659   21.2533 H   0  0  0  0  0  0  0  0  0  0  0  0
   18.8963   21.5604   22.8251 H   0  0  0  0  0  0  0  0  0  0  0  0
   18.9132   19.4805   22.4861 C   0  0  0  0  0  0  0  0  0  0  0  0
   18.3804   18.7985   21.8188 H   0  0  0  0  0  0  0  0  0  0  0  0
   18.6578   19.2239   23.5170 H   0  0  0  0  0  0  0  0  0  0  0  0
   20.4318   19.3310   22.2750 C   0  0  0  0  0  0  0  0  0  0  0  0
   20.6827   19.6252   21.2472 H   0  0  0  0  0  0  0  0  0  0  0  0
   20.9674   20.0262   22.9339 H   0  0  0  0  0  0  0  0  0  0  0  0
   20.9285   17.8838   22.5163 C   0  0  0  0  0  0  0  0  0  0  0  0
   22.0103   17.8401   22.3321 H   0  0  0  0  0  0  0  0  0  0  0  0
   20.4740   17.2229   21.7654 H   0  0  0  0  0  0  0  0  0  0  0  0
   20.6188   17.3156   23.9278 C   0  0  0  0  0  0  0  0  0  0  0  0
   19.5327   17.2029   24.0456 H   0  0  0  0  0  0  0  0  0  0  0  0
   21.0291   16.2984   23.9938 H   0  0  0  0  0  0  0  0  0  0  0  0
   21.1672   18.1533   25.1110 C   0  0  0  0  0  0  0  0  0  0  0  0
   20.8777   17.6630   26.0509 H   0  0  0  0  0  0  0  0  0  0  0  0
   20.6905   19.1425   25.1294 H   0  0  0  0  0  0  0  0  0  0  0  0
   22.7042   18.3150   25.0874 C   0  0  0  0  0  0  0  0  0  0  0  0
   23.0496   18.8402   25.9872 H   0  0  0  0  0  0  0  0  0  0  0  0
   23.0346   18.8967   24.2180 H   0  0  0  0  0  0  0  0  0  0  0  0
   23.2031   17.3377   25.0569 H   0  0  0  0  0  0  0  0  0  0  0  0
   16.9038   20.9448   22.4577 C   0  0  0  0  0  0  0  0  0  0  0  0
   16.5513   21.9600   22.2622 H   0  0  0  0  0  0  0  0  0  0  0  0
   16.4047   20.2449   21.7838 H   0  0  0  0  0  0  0  0  0  0  0  0
   16.6929   20.6744   23.4947 H   0  0  0  0  0  0  0  0  0  0  0  0
  1  2  1  0  0  0  0
  1  3  1  0  0  0  0
  1  4  1  0  0  0  0
  4  5  1  0  0  0  0
  4  6  1  0  0  0  0
  4  7  1  0  0  0  0
  7  8  1  0  0  0  0
  7  9  1  0  0  0  0
  7 10  1  0  0  0  0
 10 11  1  0  0  0  0
 10 12  1  0  0  0  0
 10 13  1  0  0  0  0
 13 14  1  0  0  0  0
 13 15  1  0  0  0  0
 13 16  1  0  0  0  0
 16 17  1  0  0  0  0
 16 18  1  0  0  0  0
 16 19  1  0  0  0  0
 19 20  1  0  0  0  0
 19 21  1  0  0  0  0
 19 22  1  0  0  0  0
  1 23  1  0  0  0  0
 23 24  1  0  0  0  0
 23 25  1  0  0  0  0
 23 26  1  0  0  0  0
M  END
> <VConfSearch Rank>
437

> <Conf_Id>
82

> <Delta U+W>
1.026

> <U+W>
22.868

> <U>
72.455

> <W>
-49.586

> <W(PB)>
-51.821

> <W(SA)>
2.234

> <Valence>
2.908

> <Coulomb>
69.435

> <VdW>
0.112

> <VdW6>
-7.765

> <VdW12>
7.877

> <Bond>
0.233

> <Angle>
1.170

> <Pdih>
1.506

> <Idih>
0.000

> <Tether>
0.000

$$$$
VeraChem MOL file


 26 25  0  0  0  0  0  0  0  0999 V2000     
   20.2854   19.5184   25.8979 N   0  3  0  0  0  0  0  0  0  0  0  0
   20.4400   18.5011   25.9745 H   0  0  0  0  0  0  0  0  0  0  0  0
   19.3971   19.6991   26.3909 H   0  0  0  0  0  0  0  0  0  0  0  0
   20.1667   19.9216   24.4421 C   0  0  0  0  0  0  0  0  0  0  0  0
   21.1239   19.7112   23.9589 H   0  0  0  0  0  0  0  0  0  0  0  0
   19.9915   20.9997   24.4053 H   0  0  0  0  0  0  0  0  0  0  0  0
   19.0363   19.1872   23.6965 C   0  0  0  0  0  0  0  0  0  0  0  0
   19.2034   18.1036   23.7458 H   0  0  0  0  0  0  0  0  0  0  0  0
   18.0845   19.3761   24.2105 H   0  0  0  0  0  0  0  0  0  0  0  0
   18.9049   19.6360   22.2198 C   0  0  0  0  0  0  0  0  0  0  0  0
   18.6152   20.6956   22.1956 H   0  0  0  0  0  0  0  0  0  0  0  0
   18.0738   19.0918   21.7518 H   0  0  0  0  0  0  0  0  0  0  0  0
   20.1898   19.4548   21.3670 C   0  0  0  0  0  0  0  0  0  0  0  0
   19.9786   19.7851   20.3406 H   0  0  0  0  0  0  0  0  0  0  0  0
   20.9725   20.1300   21.7382 H   0  0  0  0  0  0  0  0  0  0  0  0
   20.7531   18.0114   21.3215 C   0  0  0  0  0  0  0  0  0  0  0  0
   21.0717   17.6960   22.3241 H   0  0  0  0  0  0  0  0  0  0  0  0
   21.6618   18.0096   20.7034 H   0  0  0  0  0  0  0  0  0  0  0  0
   19.7560   16.9821   20.7427 C   0  0  0  0  0  0  0  0  0  0  0  0
   18.8757   16.8678   21.3873 H   0  0  0  0  0  0  0  0  0  0  0  0
   20.2299   15.9961   20.6526 H   0  0  0  0  0  0  0  0  0  0  0  0
   19.4140   17.2827   19.7439 H   0  0  0  0  0  0  0  0  0  0  0  0
   21.4261   20.2828   26.5554 C   0  0  0  0  0  0  0  0  0  0  0  0
   21.2243   21.3543   26.4912 H   0  0  0  0  0  0  0  0  0  0  0  0
   21.5006   19.9836   27.6033 H   0  0  0  0  0  0  0  0  0  0  0  0
   22.3595   20.0502   26.0381 H   0  0  0  0  0  0  0  0  0  0  0  0
  1  2  1  0  0  0  0
  1  3  1  0  0  0  0
  1  4  1  0  0  0  0
  4  5  1  0  0  0  0
  4  6  1  0  0  0  0
  4  7  1  0  0  0  0
  7  8  1  0  0  0  0
  7  9  1  0  0  0  0
  7 10  1  0  0  0  0
 10 11  1  0  0  0  0
 10 12  1  0  0  0  0
 10 13  1  0  0  0  0
 13 14  1  0  0  0  0
 13 15  1  0  0  0  0
 13 16  1  0  0  0  0
 16 17  1  0  0  0  0
 16 18  1  0  0  0  0
 16 19  1  0  0  0  0
 19 20  1  0  0  0  0
 19 21  1  0  0  0  0
 19 22  1  0  0  0  0
  1 23  1  0  0  0  0
 23 24  1  0  0  0  0
 23 25  1  0  0  0  0
 23 26  1  0  0  0  0
M  END
> <VConfSearch Rank>
438

> <Conf_Id>
71

> <Delta U+W>
1.096

> <U+W>
22.938

> <U>
72.455

> <W>
-49.517

> <W(PB)>
-51.795

> <W(SA)>
2.278

> <Valence>
2.908

> <Coulomb>
69.435

> <VdW>
0.112

> <VdW6>
-7.766

> <VdW12>
7.877

> <Bond>
0.233

> <Angle>
1.170

> <Pdih>
1.506

> <Idih>
0.000

> <Tether>
0.000

$$$$
VeraChem MOL file


 26 25  0  0  0  0  0  0  0  0999 V2000     
   18.0874   18.6096   24.6977 N   0  3  0  0  0  0  0  0  0  0  0  0
   18.9907   18.1170   24.7615 H   0  0  0  0  0  0  0  0  0  0  0  0
   17.3708   17.8685   24.7538 H   0  0  0  0  0  0  0  0  0  0  0  0
   17.9790   19.3241   23.3600 C   0  0  0  0  0  0  0  0  0  0  0  0
   17.0196   19.8472   23.3400 H   0  0  0  0  0  0  0  0  0  0  0  0
   17.9576   18.5579   22.5813 H   0  0  0  0  0  0  0  0  0  0  0  0
   19.1186   20.3229   23.0551 C   0  0  0  0  0  0  0  0  0  0  0  0
   18.9392   20.7683   22.0677 H   0  0  0  0  0  0  0  0  0  0  0  0
   19.0756   21.1530   23.7720 H   0  0  0  0  0  0  0  0  0  0  0  0
   20.5359   19.6970   23.0828 C   0  0  0  0  0  0  0  0  0  0  0  0
   20.7567   19.3186   24.0897 H   0  0  0  0  0  0  0  0  0  0  0  0
   21.2640   20.4957   22.8906 H   0  0  0  0  0  0  0  0  0  0  0  0
   20.7232   18.5636   22.0420 C   0  0  0  0  0  0  0  0  0  0  0  0
   19.9762   17.7777   22.2141 H   0  0  0  0  0  0  0  0  0  0  0  0
   20.5338   18.9535   21.0324 H   0  0  0  0  0  0  0  0  0  0  0  0
   22.1263   17.9109   22.0880 C   0  0  0  0  0  0  0  0  0  0  0  0
   22.1362   17.0501   21.4047 H   0  0  0  0  0  0  0  0  0  0  0  0
   22.3164   17.5072   23.0923 H   0  0  0  0  0  0  0  0  0  0  0  0
   23.2683   18.8736   21.6896 C   0  0  0  0  0  0  0  0  0  0  0  0
   23.3829   19.6874   22.4161 H   0  0  0  0  0  0  0  0  0  0  0  0
   23.0853   19.3165   20.7020 H   0  0  0  0  0  0  0  0  0  0  0  0
   24.2245   18.3366   21.6440 H   0  0  0  0  0  0  0  0  0  0  0  0
   17.9193   19.5836   25.8580 C   0  0  0  0  0  0  0  0  0  0  0  0
   17.9726   19.0314   26.7989 H   0  0  0  0  0  0  0  0  0  0  0  0
   18.7176   20.3277   25.8230 H   0  0  0  0  0  0  0  0  0  0  0  0
   16.9485   20.0768   25.7743 H   0  0  0  0  0  0  0  0  0  0  0  0
  1  2  1  0  0  0  0
  1  3  1  0  0  0  0
  1  4  1  0  0  0  0
  4  5  1  0  0  0  0
  4  6  1  0  0  0  0
  4  7  1  0  0  0  0
  7  8  1  0  0  0  0
  7  9  1  0  0  0  0
  7 10  1  0  0  0  0
 10 11  1  0  0  0  0
 10 12  1  0  0  0  0
 10 13  1  0  0  0  0
 13 14  1  0  0  0  0
 13 15  1  0  0  0  0
 13 16  1  0  0  0  0
 16 17  1  0  0  0  0
 16 18  1  0  0  0  0
 16 19  1  0  0  0  0
 19 20  1  0  0  0  0
 19 21  1  0  0  0  0
 19 22  1  0  0  0  0
  1 23  1  0  0  0  0
 23 24  1  0  0  0  0
 23 25  1  0  0  0  0
 23 26  1  0  0  0  0
M  END
> <VConfSearch Rank>
439

> <Conf_Id>
84

> <Delta U+W>
1.456

> <U+W>
23.298

> <U>
73.042

> <W>
-49.744

> <W(PB)>
-51.966

> <W(SA)>
2.222

> <Valence>
2.938

> <Coulomb>
69.625

> <VdW>
0.478

> <VdW6>
-8.182

> <VdW12>
8.660

> <Bond>
0.253

> <Angle>
1.038

> <Pdih>
1.647

> <Idih>
0.000

> <Tether>
0.000

$$$$
VeraChem MOL file


 26 25  0  0  0  0  0  0  0  0999 V2000     
   18.5142   19.7011   25.0525 N   0  3  0  0  0  0  0  0  0  0  0  0
   19.5070   19.9736   24.9951 H   0  0  0  0  0  0  0  0  0  0  0  0
   18.4279   19.1492   25.9200 H   0  0  0  0  0  0  0  0  0  0  0  0
   18.1406   18.8507   23.8541 C   0  0  0  0  0  0  0  0  0  0  0  0
   18.2403   19.4686   22.9586 H   0  0  0  0  0  0  0  0  0  0  0  0
   17.0886   18.5736   23.9597 H   0  0  0  0  0  0  0  0  0  0  0  0
   18.9939   17.5741   23.7045 C   0  0  0  0  0  0  0  0  0  0  0  0
   18.8451   16.9366   24.5861 H   0  0  0  0  0  0  0  0  0  0  0  0
   18.6199   17.0003   22.8462 H   0  0  0  0  0  0  0  0  0  0  0  0
   20.5081   17.8446   23.5169 C   0  0  0  0  0  0  0  0  0  0  0  0
   21.0270   16.8796   23.4325 H   0  0  0  0  0  0  0  0  0  0  0  0
   20.9154   18.3309   24.4134 H   0  0  0  0  0  0  0  0  0  0  0  0
   20.8244   18.7013   22.2672 C   0  0  0  0  0  0  0  0  0  0  0  0
   20.3945   18.2230   21.3762 H   0  0  0  0  0  0  0  0  0  0  0  0
   20.3515   19.6883   22.3575 H   0  0  0  0  0  0  0  0  0  0  0  0
   22.3453   18.8861   22.0678 C   0  0  0  0  0  0  0  0  0  0  0  0
   22.8286   17.9043   21.9654 H   0  0  0  0  0  0  0  0  0  0  0  0
   22.7813   19.3624   22.9571 H   0  0  0  0  0  0  0  0  0  0  0  0
   22.6592   19.7429   20.8227 C   0  0  0  0  0  0  0  0  0  0  0  0
   22.2646   19.2747   19.9115 H   0  0  0  0  0  0  0  0  0  0  0  0
   23.7432   19.8622   20.6974 H   0  0  0  0  0  0  0  0  0  0  0  0
   22.2182   20.7444   20.9108 H   0  0  0  0  0  0  0  0  0  0  0  0
   17.6239   20.9344   25.1113 C   0  0  0  0  0  0  0  0  0  0  0  0
   16.5817   20.6206   25.2020 H   0  0  0  0  0  0  0  0  0  0  0  0
   17.9042   21.5377   25.9776 H   0  0  0  0  0  0  0  0  0  0  0  0
   17.7568   21.5172   24.1971 H   0  0  0  0  0  0  0  0  0  0  0  0
  1  2  1  0  0  0  0
  1  3  1  0  0  0  0
  1  4  1  0  0  0  0
  4  5  1  0  0  0  0
  4  6  1  0  0  0  0
  4  7  1  0  0  0  0
  7  8  1  0  0  0  0
  7  9  1  0  0  0  0
  7 10  1  0  0  0  0
 10 11  1  0  0  0  0
 10 12  1  0  0  0  0
 10 13  1  0  0  0  0
 13 14  1  0  0  0  0
 13 15  1  0  0  0  0
 13 16  1  0  0  0  0
 16 17  1  0  0  0  0
 16 18  1  0  0  0  0
 16 19  1  0  0  0  0
 19 20  1  0  0  0  0
 19 21  1  0  0  0  0
 19 22  1  0  0  0  0
  1 23  1  0  0  0  0
 23 24  1  0  0  0  0
 23 25  1  0  0  0  0
 23 26  1  0  0  0  0
M  END
> <VConfSearch Rank>
440

> <Conf_Id>
73

> <Delta U+W>
0.884

> <U+W>
22.726

> <U>
71.905

> <W>
-49.179

> <W(PB)>
-51.494

> <W(SA)>
2.315

> <Valence>
2.125

> <Coulomb>
69.686

> <VdW>
0.093

> <VdW6>
-6.766

> <VdW12>
6.859

> <Bond>
0.169

> <Angle>
0.621

> <Pdih>
1.336

> <Idih>
0.000

> <Tether>
0.000

$$$$
VeraChem MOL file


 26 25  0  0  0  0  0  0  0  0999 V2000     
   17.7400   19.2702   25.5394 N   0  3  0  0  0  0  0  0  0  0  0  0
   18.0529   20.1713   25.9329 H   0  0  0  0  0  0  0  0  0  0  0  0
   18.1385   18.5472   26.1586 H   0  0  0  0  0  0  0  0  0  0  0  0
   18.2713   19.1023   24.1300 C   0  0  0  0  0  0  0  0  0  0  0  0
   17.8333   19.8892   23.5107 H   0  0  0  0  0  0  0  0  0  0  0  0
   17.9257   18.1359   23.7543 H   0  0  0  0  0  0  0  0  0  0  0  0
   19.8070   19.1716   24.0460 C   0  0  0  0  0  0  0  0  0  0  0  0
   20.1509   20.1373   24.4398 H   0  0  0  0  0  0  0  0  0  0  0  0
   20.2429   18.3900   24.6825 H   0  0  0  0  0  0  0  0  0  0  0  0
   20.3021   18.9958   22.5933 C   0  0  0  0  0  0  0  0  0  0  0  0
   19.8595   19.7763   21.9586 H   0  0  0  0  0  0  0  0  0  0  0  0
   19.9512   18.0310   22.2011 H   0  0  0  0  0  0  0  0  0  0  0  0
   21.8433   19.0634   22.4966 C   0  0  0  0  0  0  0  0  0  0  0  0
   22.1944   20.0281   22.8886 H   0  0  0  0  0  0  0  0  0  0  0  0
   22.2861   18.2830   23.1310 H   0  0  0  0  0  0  0  0  0  0  0  0
   22.3382   18.8875   21.0436 C   0  0  0  0  0  0  0  0  0  0  0  0
   21.8999   19.6675   20.4052 H   0  0  0  0  0  0  0  0  0  0  0  0
   21.9917   17.9226   20.6476 H   0  0  0  0  0  0  0  0  0  0  0  0
   23.8776   18.9556   20.9510 C   0  0  0  0  0  0  0  0  0  0  0  0
   24.2095   18.8288   19.9123 H   0  0  0  0  0  0  0  0  0  0  0  0
   24.3448   18.1650   21.5526 H   0  0  0  0  0  0  0  0  0  0  0  0
   24.2523   19.9236   21.3083 H   0  0  0  0  0  0  0  0  0  0  0  0
   16.2197   19.1891   25.5331 C   0  0  0  0  0  0  0  0  0  0  0  0
   15.9136   18.2154   25.1443 H   0  0  0  0  0  0  0  0  0  0  0  0
   15.8503   19.3115   26.5538 H   0  0  0  0  0  0  0  0  0  0  0  0
   15.8203   19.9833   24.8986 H   0  0  0  0  0  0  0  0  0  0  0  0
  1  2  1  0  0  0  0
  1  3  1  0  0  0  0
  1  4  1  0  0  0  0
  4  5  1  0  0  0  0
  4  6  1  0  0  0  0
  4  7  1  0  0  0  0
  7  8  1  0  0  0  0
  7  9  1  0  0  0  0
  7 10  1  0  0  0  0
 10 11  1  0  0  0  0
 10 12  1  0  0  0  0
 10 13  1  0  0  0  0
 13 14  1  0  0  0  0
 13 15  1  0  0  0  0
 13 16  1  0  0  0  0
 16 17  1  0  0  0  0
 16 18  1  0  0  0  0
 16 19  1  0  0  0  0
 19 20  1  0  0  0  0
 19 21  1  0  0  0  0
 19 22  1  0  0  0  0
  1 23  1  0  0  0  0
 23 24  1  0  0  0  0
 23 25  1  0  0  0  0
 23 26  1  0  0  0  0
M  END
> <VConfSearch Rank>
441

> <Conf_Id>
11

> <Delta U+W>
0.000

> <U+W>
21.842

> <U>
70.357

> <W>
-48.515

> <W(PB)>
-50.856

> <W(SA)>
2.341

> <Valence>
1.714

> <Coulomb>
68.480

> <VdW>
0.163

> <VdW6>
-5.268

> <VdW12>
5.431

> <Bond>
0.126

> <Angle>
0.350

> <Pdih>
1.238

> <Idih>
0.000

> <Tether>
0.000

$$$$
VeraChem MOL file


 26 25  0  0  0  0  0  0  0  0999 V2000     
   21.8824   21.7237   24.1236 N   0  3  0  0  0  0  0  0  0  0  0  0
   22.7673   21.9171   24.6191 H   0  0  0  0  0  0  0  0  0  0  0  0
   21.1494   22.1481   24.7128 H   0  0  0  0  0  0  0  0  0  0  0  0
   21.6729   20.2218   24.0248 C   0  0  0  0  0  0  0  0  0  0  0  0
   21.8312   19.8058   25.0231 H   0  0  0  0  0  0  0  0  0  0  0  0
   22.4430   19.8174   23.3631 H   0  0  0  0  0  0  0  0  0  0  0  0
   20.2764   19.8017   23.5229 C   0  0  0  0  0  0  0  0  0  0  0  0
   19.5080   20.2533   24.1642 H   0  0  0  0  0  0  0  0  0  0  0  0
   20.1156   20.1866   22.5076 H   0  0  0  0  0  0  0  0  0  0  0  0
   20.1164   18.2653   23.5225 C   0  0  0  0  0  0  0  0  0  0  0  0
   20.2794   17.8798   24.5387 H   0  0  0  0  0  0  0  0  0  0  0  0
   20.8911   17.8169   22.8849 H   0  0  0  0  0  0  0  0  0  0  0  0
   18.7199   17.8305   23.0226 C   0  0  0  0  0  0  0  0  0  0  0  0
   17.9452   18.2789   23.6600 H   0  0  0  0  0  0  0  0  0  0  0  0
   18.5568   18.2156   22.0064 H   0  0  0  0  0  0  0  0  0  0  0  0
   18.5602   16.2937   23.0224 C   0  0  0  0  0  0  0  0  0  0  0  0
   18.7199   15.9038   24.0375 H   0  0  0  0  0  0  0  0  0  0  0  0
   19.3316   15.8404   22.3841 H   0  0  0  0  0  0  0  0  0  0  0  0
   17.1645   15.8633   22.5226 C   0  0  0  0  0  0  0  0  0  0  0  0
   17.0704   14.7697   22.5296 H   0  0  0  0  0  0  0  0  0  0  0  0
   16.9886   16.2097   21.4958 H   0  0  0  0  0  0  0  0  0  0  0  0
   16.3721   16.2735   23.1621 H   0  0  0  0  0  0  0  0  0  0  0  0
   21.9105   22.3699   22.7431 C   0  0  0  0  0  0  0  0  0  0  0  0
   20.9476   22.2164   22.2519 H   0  0  0  0  0  0  0  0  0  0  0  0
   22.0995   23.4400   22.8535 H   0  0  0  0  0  0  0  0  0  0  0  0
   22.7064   21.9144   22.1499 H   0  0  0  0  0  0  0  0  0  0  0  0
  1  2  1  0  0  0  0
  1  3  1  0  0  0  0
  1  4  1  0  0  0  0
  4  5  1  0  0  0  0
  4  6  1  0  0  0  0
  4  7  1  0  0  0  0
  7  8  1  0  0  0  0
  7  9  1  0  0  0  0
  7 10  1  0  0  0  0
 10 11  1  0  0  0  0
 10 12  1  0  0  0  0
 10 13  1  0  0  0  0
 13 14  1  0  0  0  0
 13 15  1  0  0  0  0
 13 16  1  0  0  0  0
 16 17  1  0  0  0  0
 16 18  1  0  0  0  0
 16 19  1  0  0  0  0
 19 20  1  0  0  0  0
 19 21  1  0  0  0  0
 19 22  1  0  0  0  0
  1 23  1  0  0  0  0
 23 24  1  0  0  0  0
 23 25  1  0  0  0  0
 23 26  1  0  0  0  0
M  END
> <VConfSearch Rank>
442

> <Conf_Id>
102

> <Delta U+W>
0.121

> <U+W>
21.963

> <U>
70.745

> <W>
-48.782

> <W(PB)>
-51.111

> <W(SA)>
2.329

> <Valence>
1.993

> <Coulomb>
68.323

> <VdW>
0.429

> <VdW6>
-5.973

> <VdW12>
6.402

> <Bond>
0.161

> <Angle>
0.472

> <Pdih>
1.360

> <Idih>
0.000

> <Tether>
0.000

$$$$
VeraChem MOL file


 26 25  0  0  0  0  0  0  0  0999 V2000     
   21.8228   16.5665   21.7576 N   0  3  0  0  0  0  0  0  0  0  0  0
   22.6519   16.6643   22.3638 H   0  0  0  0  0  0  0  0  0  0  0  0
   22.2014   16.3469   20.8224 H   0  0  0  0  0  0  0  0  0  0  0  0
   21.0560   17.8772   21.7005 C   0  0  0  0  0  0  0  0  0  0  0  0
   20.1678   17.7210   21.0831 H   0  0  0  0  0  0  0  0  0  0  0  0
   21.6957   18.6057   21.1960 H   0  0  0  0  0  0  0  0  0  0  0  0
   20.6458   18.4394   23.0769 C   0  0  0  0  0  0  0  0  0  0  0  0
   19.9769   17.7312   23.5829 H   0  0  0  0  0  0  0  0  0  0  0  0
   21.5385   18.5462   23.7073 H   0  0  0  0  0  0  0  0  0  0  0  0
   19.9396   19.8064   22.9394 C   0  0  0  0  0  0  0  0  0  0  0  0
   19.0506   19.6966   22.3026 H   0  0  0  0  0  0  0  0  0  0  0  0
   20.6086   20.5148   22.4312 H   0  0  0  0  0  0  0  0  0  0  0  0
   19.5240   20.3820   24.3125 C   0  0  0  0  0  0  0  0  0  0  0  0
   18.8548   19.6740   24.8207 H   0  0  0  0  0  0  0  0  0  0  0  0
   20.4128   20.4916   24.9494 H   0  0  0  0  0  0  0  0  0  0  0  0
   18.8179   21.7493   24.1747 C   0  0  0  0  0  0  0  0  0  0  0  0
   17.9266   21.6446   23.5401 H   0  0  0  0  0  0  0  0  0  0  0  0
   19.4844   22.4622   23.6692 H   0  0  0  0  0  0  0  0  0  0  0  0
   18.4042   22.3208   25.5477 C   0  0  0  0  0  0  0  0  0  0  0  0
   17.7093   21.6454   26.0635 H   0  0  0  0  0  0  0  0  0  0  0  0
   17.9048   23.2912   25.4293 H   0  0  0  0  0  0  0  0  0  0  0  0
   19.2794   22.4692   26.1937 H   0  0  0  0  0  0  0  0  0  0  0  0
   20.9323   15.4253   22.2362 C   0  0  0  0  0  0  0  0  0  0  0  0
   20.0748   15.3340   21.5659 H   0  0  0  0  0  0  0  0  0  0  0  0
   21.5070   14.4965   22.2282 H   0  0  0  0  0  0  0  0  0  0  0  0
   20.5890   15.6354   23.2511 H   0  0  0  0  0  0  0  0  0  0  0  0
  1  2  1  0  0  0  0
  1  3  1  0  0  0  0
  1  4  1  0  0  0  0
  4  5  1  0  0  0  0
  4  6  1  0  0  0  0
  4  7  1  0  0  0  0
  7  8  1  0  0  0  0
  7  9  1  0  0  0  0
  7 10  1  0  0  0  0
 10 11  1  0  0  0  0
 10 12  1  0  0  0  0
 10 13  1  0  0  0  0
 13 14  1  0  0  0  0
 13 15  1  0  0  0  0
 13 16  1  0  0  0  0
 16 17  1  0  0  0  0
 16 18  1  0  0  0  0
 16 19  1  0  0  0  0
 19 20  1  0  0  0  0
 19 21  1  0  0  0  0
 19 22  1  0  0  0  0
  1 23  1  0  0  0  0
 23 24  1  0  0  0  0
 23 25  1  0  0  0  0
 23 26  1  0  0  0  0
M  END
> <VConfSearch Rank>
443

> <Conf_Id>
37

> <Delta U+W>
0.125

> <U+W>
21.967

> <U>
70.745

> <W>
-48.778

> <W(PB)>
-51.115

> <W(SA)>
2.337

> <Valence>
1.993

> <Coulomb>
68.323

> <VdW>
0.429

> <VdW6>
-5.973

> <VdW12>
6.403

> <Bond>
0.161

> <Angle>
0.472

> <Pdih>
1.360

> <Idih>
0.000

> <Tether>
0.000

$$$$
VeraChem MOL file


 26 25  0  0  0  0  0  0  0  0999 V2000     
   17.7189   19.3186   21.3305 N   0  3  0  0  0  0  0  0  0  0  0  0
   17.7005   18.5069   20.6936 H   0  0  0  0  0  0  0  0  0  0  0  0
   18.1050   20.0962   20.7728 H   0  0  0  0  0  0  0  0  0  0  0  0
   18.6154   19.0312   22.5180 C   0  0  0  0  0  0  0  0  0  0  0  0
   18.1786   18.1979   23.0740 H   0  0  0  0  0  0  0  0  0  0  0  0
   18.6095   19.9150   23.1602 H   0  0  0  0  0  0  0  0  0  0  0  0
   20.0628   18.6853   22.1182 C   0  0  0  0  0  0  0  0  0  0  0  0
   20.0493   17.8250   21.4358 H   0  0  0  0  0  0  0  0  0  0  0  0
   20.5025   19.5225   21.5599 H   0  0  0  0  0  0  0  0  0  0  0  0
   20.9563   18.3454   23.3348 C   0  0  0  0  0  0  0  0  0  0  0  0
   21.9301   18.0038   22.9606 H   0  0  0  0  0  0  0  0  0  0  0  0
   20.5200   17.5002   23.8849 H   0  0  0  0  0  0  0  0  0  0  0  0
   21.1599   19.5458   24.2944 C   0  0  0  0  0  0  0  0  0  0  0  0
   21.6150   20.3836   23.7484 H   0  0  0  0  0  0  0  0  0  0  0  0
   20.1839   19.9023   24.6492 H   0  0  0  0  0  0  0  0  0  0  0  0
   22.0259   19.2054   25.5317 C   0  0  0  0  0  0  0  0  0  0  0  0
   21.5693   18.3751   26.0883 H   0  0  0  0  0  0  0  0  0  0  0  0
   22.0225   20.0689   26.2117 H   0  0  0  0  0  0  0  0  0  0  0  0
   23.4905   18.8548   25.1826 C   0  0  0  0  0  0  0  0  0  0  0  0
   23.5571   17.9233   24.6071 H   0  0  0  0  0  0  0  0  0  0  0  0
   24.0811   18.7187   26.0978 H   0  0  0  0  0  0  0  0  0  0  0  0
   23.9599   19.6559   24.5970 H   0  0  0  0  0  0  0  0  0  0  0  0
   16.3135   19.6523   21.8112 C   0  0  0  0  0  0  0  0  0  0  0  0
   16.3540   20.5332   22.4557 H   0  0  0  0  0  0  0  0  0  0  0  0
   15.6783   19.8568   20.9465 H   0  0  0  0  0  0  0  0  0  0  0  0
   15.9138   18.8030   22.3698 H   0  0  0  0  0  0  0  0  0  0  0  0
  1  2  1  0  0  0  0
  1  3  1  0  0  0  0
  1  4  1  0  0  0  0
  4  5  1  0  0  0  0
  4  6  1  0  0  0  0
  4  7  1  0  0  0  0
  7  8  1  0  0  0  0
  7  9  1  0  0  0  0
  7 10  1  0  0  0  0
 10 11  1  0  0  0  0
 10 12  1  0  0  0  0
 10 13  1  0  0  0  0
 13 14  1  0  0  0  0
 13 15  1  0  0  0  0
 13 16  1  0  0  0  0
 16 17  1  0  0  0  0
 16 18  1  0  0  0  0
 16 19  1  0  0  0  0
 19 20  1  0  0  0  0
 19 21  1  0  0  0  0
 19 22  1  0  0  0  0
  1 23  1  0  0  0  0
 23 24  1  0  0  0  0
 23 25  1  0  0  0  0
 23 26  1  0  0  0  0
M  END
> <VConfSearch Rank>
444

> <Conf_Id>
137

> <Delta U+W>
1.038

> <U+W>
22.880

> <U>
71.810

> <W>
-48.930

> <W(PB)>
-51.257

> <W(SA)>
2.327

> <Valence>
2.568

> <Coulomb>
68.877

> <VdW>
0.364

> <VdW6>
-6.470

> <VdW12>
6.834

> <Bond>
0.191

> <Angle>
0.752

> <Pdih>
1.626

> <Idih>
0.000

> <Tether>
0.000

$$$$
VeraChem MOL file


 26 25  0  0  0  0  0  0  0  0999 V2000     
   21.9254   16.9408   24.2570 N   0  3  0  0  0  0  0  0  0  0  0  0
   21.2484   16.7719   25.0173 H   0  0  0  0  0  0  0  0  0  0  0  0
   22.6218   17.5934   24.6495 H   0  0  0  0  0  0  0  0  0  0  0  0
   21.2297   17.5716   23.0675 C   0  0  0  0  0  0  0  0  0  0  0  0
   20.4975   16.8543   22.6881 H   0  0  0  0  0  0  0  0  0  0  0  0
   21.9803   17.7408   22.2913 H   0  0  0  0  0  0  0  0  0  0  0  0
   20.5268   18.8988   23.4063 C   0  0  0  0  0  0  0  0  0  0  0  0
   19.7897   18.7199   24.1991 H   0  0  0  0  0  0  0  0  0  0  0  0
   21.2632   19.6106   23.8022 H   0  0  0  0  0  0  0  0  0  0  0  0
   19.8351   19.5030   22.1614 C   0  0  0  0  0  0  0  0  0  0  0  0
   19.0638   18.8119   21.7940 H   0  0  0  0  0  0  0  0  0  0  0  0
   20.5742   19.5969   21.3535 H   0  0  0  0  0  0  0  0  0  0  0  0
   19.2062   20.8953   22.4154 C   0  0  0  0  0  0  0  0  0  0  0  0
   19.9809   21.5913   22.7660 H   0  0  0  0  0  0  0  0  0  0  0  0
   18.8456   21.2941   21.4571 H   0  0  0  0  0  0  0  0  0  0  0  0
   18.0322   20.8710   23.4230 C   0  0  0  0  0  0  0  0  0  0  0  0
   18.3866   20.5501   24.4114 H   0  0  0  0  0  0  0  0  0  0  0  0
   17.2807   20.1370   23.0999 H   0  0  0  0  0  0  0  0  0  0  0  0
   17.3675   22.2579   23.5563 C   0  0  0  0  0  0  0  0  0  0  0  0
   18.0877   23.0086   23.9070 H   0  0  0  0  0  0  0  0  0  0  0  0
   16.5396   22.2235   24.2762 H   0  0  0  0  0  0  0  0  0  0  0  0
   16.9623   22.5964   22.5937 H   0  0  0  0  0  0  0  0  0  0  0  0
   22.5919   15.6383   23.8364 C   0  0  0  0  0  0  0  0  0  0  0  0
   23.3267   15.8466   23.0557 H   0  0  0  0  0  0  0  0  0  0  0  0
   23.0891   15.1945   24.7019 H   0  0  0  0  0  0  0  0  0  0  0  0
   21.8318   14.9524   23.4559 H   0  0  0  0  0  0  0  0  0  0  0  0
  1  2  1  0  0  0  0
  1  3  1  0  0  0  0
  1  4  1  0  0  0  0
  4  5  1  0  0  0  0
  4  6  1  0  0  0  0
  4  7  1  0  0  0  0
  7  8  1  0  0  0  0
  7  9  1  0  0  0  0
  7 10  1  0  0  0  0
 10 11  1  0  0  0  0
 10 12  1  0  0  0  0
 10 13  1  0  0  0  0
 13 14  1  0  0  0  0
 13 15  1  0  0  0  0
 13 16  1  0  0  0  0
 16 17  1  0  0  0  0
 16 18  1  0  0  0  0
 16 19  1  0  0  0  0
 19 20  1  0  0  0  0
 19 21  1  0  0  0  0
 19 22  1  0  0  0  0
  1 23  1  0  0  0  0
 23 24  1  0  0  0  0
 23 25  1  0  0  0  0
 23 26  1  0  0  0  0
M  END
> <VConfSearch Rank>
445

> <Conf_Id>
35

> <Delta U+W>
0.670

> <U+W>
22.512

> <U>
71.348

> <W>
-48.837

> <W(PB)>
-51.150

> <W(SA)>
2.313

> <Valence>
2.262

> <Coulomb>
68.807

> <VdW>
0.280

> <VdW6>
-5.915

> <VdW12>
6.195

> <Bond>
0.164

> <Angle>
0.622

> <Pdih>
1.475

> <Idih>
0.000

> <Tether>
0.000

$$$$
VeraChem MOL file


 26 25  0  0  0  0  0  0  0  0999 V2000     
   22.4883   18.3721   24.8077 N   0  3  0  0  0  0  0  0  0  0  0  0
   22.2222   18.8919   25.6584 H   0  0  0  0  0  0  0  0  0  0  0  0
   22.9811   19.0551   24.2114 H   0  0  0  0  0  0  0  0  0  0  0  0
   21.2505   17.8575   24.1007 C   0  0  0  0  0  0  0  0  0  0  0  0
   20.7556   17.1461   24.7667 H   0  0  0  0  0  0  0  0  0  0  0  0
   21.5743   17.3222   23.2045 H   0  0  0  0  0  0  0  0  0  0  0  0
   20.2644   18.9731   23.7096 C   0  0  0  0  0  0  0  0  0  0  0  0
   19.9545   19.5183   24.6110 H   0  0  0  0  0  0  0  0  0  0  0  0
   20.7776   19.6904   23.0569 H   0  0  0  0  0  0  0  0  0  0  0  0
   19.0188   18.3980   22.9947 C   0  0  0  0  0  0  0  0  0  0  0  0
   18.5683   17.6236   23.6312 H   0  0  0  0  0  0  0  0  0  0  0  0
   19.3235   17.8944   22.0667 H   0  0  0  0  0  0  0  0  0  0  0  0
   17.9389   19.4619   22.6774 C   0  0  0  0  0  0  0  0  0  0  0  0
   17.0512   18.9492   22.2818 H   0  0  0  0  0  0  0  0  0  0  0  0
   17.6211   19.9532   23.6075 H   0  0  0  0  0  0  0  0  0  0  0  0
   18.4002   20.5281   21.6554 C   0  0  0  0  0  0  0  0  0  0  0  0
   18.7668   20.0350   20.7443 H   0  0  0  0  0  0  0  0  0  0  0  0
   19.2389   21.1075   22.0635 H   0  0  0  0  0  0  0  0  0  0  0  0
   17.2558   21.4965   21.2873 C   0  0  0  0  0  0  0  0  0  0  0  0
   16.4119   20.9583   20.8363 H   0  0  0  0  0  0  0  0  0  0  0  0
   17.6006   22.2473   20.5644 H   0  0  0  0  0  0  0  0  0  0  0  0
   16.8874   22.0277   22.1746 H   0  0  0  0  0  0  0  0  0  0  0  0
   23.4062   17.2090   25.1578 C   0  0  0  0  0  0  0  0  0  0  0  0
   23.7007   16.6950   24.2401 H   0  0  0  0  0  0  0  0  0  0  0  0
   24.2933   17.5932   25.6663 H   0  0  0  0  0  0  0  0  0  0  0  0
   22.8747   16.5174   25.8152 H   0  0  0  0  0  0  0  0  0  0  0  0
  1  2  1  0  0  0  0
  1  3  1  0  0  0  0
  1  4  1  0  0  0  0
  4  5  1  0  0  0  0
  4  6  1  0  0  0  0
  4  7  1  0  0  0  0
  7  8  1  0  0  0  0
  7  9  1  0  0  0  0
  7 10  1  0  0  0  0
 10 11  1  0  0  0  0
 10 12  1  0  0  0  0
 10 13  1  0  0  0  0
 13 14  1  0  0  0  0
 13 15  1  0  0  0  0
 13 16  1  0  0  0  0
 16 17  1  0  0  0  0
 16 18  1  0  0  0  0
 16 19  1  0  0  0  0
 19 20  1  0  0  0  0
 19 21  1  0  0  0  0
 19 22  1  0  0  0  0
  1 23  1  0  0  0  0
 23 24  1  0  0  0  0
 23 25  1  0  0  0  0
 23 26  1  0  0  0  0
M  END
> <VConfSearch Rank>
446

> <Conf_Id>
36

> <Delta U+W>
0.662

> <U+W>
22.504

> <U>
71.348

> <W>
-48.844

> <W(PB)>
-51.157

> <W(SA)>
2.313

> <Valence>
2.262

> <Coulomb>
68.807

> <VdW>
0.280

> <VdW6>
-5.916

> <VdW12>
6.195

> <Bond>
0.164

> <Angle>
0.622

> <Pdih>
1.475

> <Idih>
0.000

> <Tether>
0.000

$$$$
VeraChem MOL file


 26 25  0  0  0  0  0  0  0  0999 V2000     
   23.0493   19.5514   22.6169 N   0  3  0  0  0  0  0  0  0  0  0  0
   23.4311   19.2315   23.5206 H   0  0  0  0  0  0  0  0  0  0  0  0
   23.3600   20.5306   22.5189 H   0  0  0  0  0  0  0  0  0  0  0  0
   21.5356   19.4823   22.6347 C   0  0  0  0  0  0  0  0  0  0  0  0
   21.2519   18.4330   22.7448 H   0  0  0  0  0  0  0  0  0  0  0  0
   21.1722   19.8383   21.6675 H   0  0  0  0  0  0  0  0  0  0  0  0
   20.9014   20.3155   23.7652 C   0  0  0  0  0  0  0  0  0  0  0  0
   21.2679   19.9589   24.7370 H   0  0  0  0  0  0  0  0  0  0  0  0
   21.2295   21.3591   23.6691 H   0  0  0  0  0  0  0  0  0  0  0  0
   19.3552   20.2715   23.7447 C   0  0  0  0  0  0  0  0  0  0  0  0
   18.9905   20.6547   22.7815 H   0  0  0  0  0  0  0  0  0  0  0  0
   18.9732   20.9555   24.5153 H   0  0  0  0  0  0  0  0  0  0  0  0
   18.7836   18.8547   23.9934 C   0  0  0  0  0  0  0  0  0  0  0  0
   19.1176   18.1706   23.2018 H   0  0  0  0  0  0  0  0  0  0  0  0
   19.1767   18.4612   24.9410 H   0  0  0  0  0  0  0  0  0  0  0  0
   17.2393   18.8587   24.0401 C   0  0  0  0  0  0  0  0  0  0  0  0
   16.8405   19.2524   23.0945 H   0  0  0  0  0  0  0  0  0  0  0  0
   16.8933   19.5341   24.8352 H   0  0  0  0  0  0  0  0  0  0  0  0
   16.6704   17.4450   24.2865 C   0  0  0  0  0  0  0  0  0  0  0  0
   16.9703   16.7538   23.4880 H   0  0  0  0  0  0  0  0  0  0  0  0
   15.5733   17.4685   24.3168 H   0  0  0  0  0  0  0  0  0  0  0  0
   17.0249   17.0377   25.2423 H   0  0  0  0  0  0  0  0  0  0  0  0
   23.5931   18.7019   21.4765 C   0  0  0  0  0  0  0  0  0  0  0  0
   23.2019   19.0794   20.5292 H   0  0  0  0  0  0  0  0  0  0  0  0
   24.6839   18.7606   21.4748 H   0  0  0  0  0  0  0  0  0  0  0  0
   23.2798   17.6654   21.6197 H   0  0  0  0  0  0  0  0  0  0  0  0
  1  2  1  0  0  0  0
  1  3  1  0  0  0  0
  1  4  1  0  0  0  0
  4  5  1  0  0  0  0
  4  6  1  0  0  0  0
  4  7  1  0  0  0  0
  7  8  1  0  0  0  0
  7  9  1  0  0  0  0
  7 10  1  0  0  0  0
 10 11  1  0  0  0  0
 10 12  1  0  0  0  0
 10 13  1  0  0  0  0
 13 14  1  0  0  0  0
 13 15  1  0  0  0  0
 13 16  1  0  0  0  0
 16 17  1  0  0  0  0
 16 18  1  0  0  0  0
 16 19  1  0  0  0  0
 19 20  1  0  0  0  0
 19 21  1  0  0  0  0
 19 22  1  0  0  0  0
  1 23  1  0  0  0  0
 23 24  1  0  0  0  0
 23 25  1  0  0  0  0
 23 26  1  0  0  0  0
M  END
> <VConfSearch Rank>
447

> <Conf_Id>
46

> <Delta U+W>
0.496

> <U+W>
22.338

> <U>
71.138

> <W>
-48.799

> <W(PB)>
-51.136

> <W(SA)>
2.337

> <Valence>
2.016

> <Coulomb>
68.932

> <VdW>
0.190

> <VdW6>
-5.902

> <VdW12>
6.092

> <Bond>
0.149

> <Angle>
0.477

> <Pdih>
1.390

> <Idih>
0.000

> <Tether>
0.000

$$$$
VeraChem MOL file


 26 25  0  0  0  0  0  0  0  0999 V2000     
   20.0290   21.4230   25.1917 N   0  3  0  0  0  0  0  0  0  0  0  0
   19.1921   22.0260   25.2214 H   0  0  0  0  0  0  0  0  0  0  0  0
   20.7434   21.9699   24.6865 H   0  0  0  0  0  0  0  0  0  0  0  0
   19.7240   20.1418   24.4419 C   0  0  0  0  0  0  0  0  0  0  0  0
   18.9582   19.5995   25.0021 H   0  0  0  0  0  0  0  0  0  0  0  0
   20.6349   19.5386   24.4301 H   0  0  0  0  0  0  0  0  0  0  0  0
   19.2384   20.3815   22.9993 C   0  0  0  0  0  0  0  0  0  0  0  0
   18.3487   21.0249   23.0224 H   0  0  0  0  0  0  0  0  0  0  0  0
   20.0071   20.9280   22.4368 H   0  0  0  0  0  0  0  0  0  0  0  0
   18.8889   19.0681   22.2604 C   0  0  0  0  0  0  0  0  0  0  0  0
   18.4662   19.3187   21.2776 H   0  0  0  0  0  0  0  0  0  0  0  0
   18.1000   18.5369   22.8110 H   0  0  0  0  0  0  0  0  0  0  0  0
   20.1092   18.1358   22.0669 C   0  0  0  0  0  0  0  0  0  0  0  0
   20.9086   18.6806   21.5456 H   0  0  0  0  0  0  0  0  0  0  0  0
   20.5125   17.8370   23.0437 H   0  0  0  0  0  0  0  0  0  0  0  0
   19.7419   16.8690   21.2623 C   0  0  0  0  0  0  0  0  0  0  0  0
   19.3449   17.1557   20.2784 H   0  0  0  0  0  0  0  0  0  0  0  0
   18.9418   16.3203   21.7789 H   0  0  0  0  0  0  0  0  0  0  0  0
   20.9593   15.9392   21.0713 C   0  0  0  0  0  0  0  0  0  0  0  0
   21.7645   16.4496   20.5270 H   0  0  0  0  0  0  0  0  0  0  0  0
   20.6788   15.0462   20.4978 H   0  0  0  0  0  0  0  0  0  0  0  0
   21.3580   15.6065   22.0385 H   0  0  0  0  0  0  0  0  0  0  0  0
   20.5033   21.0977   26.6013 C   0  0  0  0  0  0  0  0  0  0  0  0
   20.7192   22.0287   27.1303 H   0  0  0  0  0  0  0  0  0  0  0  0
   19.7188   20.5485   27.1265 H   0  0  0  0  0  0  0  0  0  0  0  0
   21.4075   20.4877   26.5442 H   0  0  0  0  0  0  0  0  0  0  0  0
  1  2  1  0  0  0  0
  1  3  1  0  0  0  0
  1  4  1  0  0  0  0
  4  5  1  0  0  0  0
  4  6  1  0  0  0  0
  4  7  1  0  0  0  0
  7  8  1  0  0  0  0
  7  9  1  0  0  0  0
  7 10  1  0  0  0  0
 10 11  1  0  0  0  0
 10 12  1  0  0  0  0
 10 13  1  0  0  0  0
 13 14  1  0  0  0  0
 13 15  1  0  0  0  0
 13 16  1  0  0  0  0
 16 17  1  0  0  0  0
 16 18  1  0  0  0  0
 16 19  1  0  0  0  0
 19 20  1  0  0  0  0
 19 21  1  0  0  0  0
 19 22  1  0  0  0  0
  1 23  1  0  0  0  0
 23 24  1  0  0  0  0
 23 25  1  0  0  0  0
 23 26  1  0  0  0  0
M  END
> <VConfSearch Rank>
448

> <Conf_Id>
45

> <Delta U+W>
0.471

> <U+W>
22.313

> <U>
71.138

> <W>
-48.825

> <W(PB)>
-51.169

> <W(SA)>
2.344

> <Valence>
2.016

> <Coulomb>
68.932

> <VdW>
0.190

> <VdW6>
-5.902

> <VdW12>
6.092

> <Bond>
0.149

> <Angle>
0.477

> <Pdih>
1.390

> <Idih>
0.000

> <Tether>
0.000

$$$$
VeraChem MOL file


 26 25  0  0  0  0  0  0  0  0999 V2000     
   17.6464   18.4024   23.8866 N   0  3  0  0  0  0  0  0  0  0  0  0
   18.2723   18.0476   24.6253 H   0  0  0  0  0  0  0  0  0  0  0  0
   17.7199   17.7243   23.1124 H   0  0  0  0  0  0  0  0  0  0  0  0
   18.1079   19.7718   23.4266 C   0  0  0  0  0  0  0  0  0  0  0  0
   18.0246   20.4577   24.2734 H   0  0  0  0  0  0  0  0  0  0  0  0
   17.4196   20.1072   22.6467 H   0  0  0  0  0  0  0  0  0  0  0  0
   19.5492   19.7942   22.8808 C   0  0  0  0  0  0  0  0  0  0  0  0
   19.6216   19.1041   22.0308 H   0  0  0  0  0  0  0  0  0  0  0  0
   19.7563   20.7990   22.4895 H   0  0  0  0  0  0  0  0  0  0  0  0
   20.6004   19.4372   23.9617 C   0  0  0  0  0  0  0  0  0  0  0  0
   20.4601   18.4011   24.2976 H   0  0  0  0  0  0  0  0  0  0  0  0
   20.4361   20.0733   24.8427 H   0  0  0  0  0  0  0  0  0  0  0  0
   22.0622   19.6258   23.4864 C   0  0  0  0  0  0  0  0  0  0  0  0
   22.2161   20.6672   23.1715 H   0  0  0  0  0  0  0  0  0  0  0  0
   22.7308   19.4617   24.3428 H   0  0  0  0  0  0  0  0  0  0  0  0
   22.4686   18.6688   22.3406 C   0  0  0  0  0  0  0  0  0  0  0  0
   21.8624   18.8677   21.4469 H   0  0  0  0  0  0  0  0  0  0  0  0
   22.2688   17.6294   22.6364 H   0  0  0  0  0  0  0  0  0  0  0  0
   23.9612   18.8184   21.9762 C   0  0  0  0  0  0  0  0  0  0  0  0
   24.1865   19.8412   21.6472 H   0  0  0  0  0  0  0  0  0  0  0  0
   24.2317   18.1351   21.1608 H   0  0  0  0  0  0  0  0  0  0  0  0
   24.6033   18.5867   22.8360 H   0  0  0  0  0  0  0  0  0  0  0  0
   16.2133   18.4816   24.3940 C   0  0  0  0  0  0  0  0  0  0  0  0
   15.5652   18.8291   23.5865 H   0  0  0  0  0  0  0  0  0  0  0  0
   15.8941   17.4899   24.7223 H   0  0  0  0  0  0  0  0  0  0  0  0
   16.1672   19.1803   25.2322 H   0  0  0  0  0  0  0  0  0  0  0  0
  1  2  1  0  0  0  0
  1  3  1  0  0  0  0
  1  4  1  0  0  0  0
  4  5  1  0  0  0  0
  4  6  1  0  0  0  0
  4  7  1  0  0  0  0
  7  8  1  0  0  0  0
  7  9  1  0  0  0  0
  7 10  1  0  0  0  0
 10 11  1  0  0  0  0
 10 12  1  0  0  0  0
 10 13  1  0  0  0  0
 13 14  1  0  0  0  0
 13 15  1  0  0  0  0
 13 16  1  0  0  0  0
 16 17  1  0  0  0  0
 16 18  1  0  0  0  0
 16 19  1  0  0  0  0
 19 20  1  0  0  0  0
 19 21  1  0  0  0  0
 19 22  1  0  0  0  0
  1 23  1  0  0  0  0
 23 24  1  0  0  0  0
 23 25  1  0  0  0  0
 23 26  1  0  0  0  0
M  END
> <VConfSearch Rank>
449

> <Conf_Id>
143

> <Delta U+W>
0.915

> <U+W>
22.757

> <U>
71.994

> <W>
-49.237

> <W(PB)>
-51.537

> <W(SA)>
2.300

> <Valence>
2.376

> <Coulomb>
69.315

> <VdW>
0.303

> <VdW6>
-6.508

> <VdW12>
6.810

> <Bond>
0.182

> <Angle>
0.660

> <Pdih>
1.534

> <Idih>
0.000

> <Tether>
0.000

$$$$
VeraChem MOL file


 26 25  0  0  0  0  0  0  0  0999 V2000     
   22.1975   19.7568   24.5625 N   0  3  0  0  0  0  0  0  0  0  0  0
   21.7086   19.2593   25.3218 H   0  0  0  0  0  0  0  0  0  0  0  0
   21.8948   20.7404   24.6368 H   0  0  0  0  0  0  0  0  0  0  0  0
   21.7907   19.1860   23.2176 C   0  0  0  0  0  0  0  0  0  0  0  0
   22.1179   18.1439   23.1795 H   0  0  0  0  0  0  0  0  0  0  0  0
   22.3325   19.7418   22.4481 H   0  0  0  0  0  0  0  0  0  0  0  0
   20.2777   19.2658   22.9333 C   0  0  0  0  0  0  0  0  0  0  0  0
   19.9454   20.3101   23.0018 H   0  0  0  0  0  0  0  0  0  0  0  0
   20.1148   18.9453   21.8970 H   0  0  0  0  0  0  0  0  0  0  0  0
   19.4419   18.3750   23.8847 C   0  0  0  0  0  0  0  0  0  0  0  0
   19.6838   18.6239   24.9262 H   0  0  0  0  0  0  0  0  0  0  0  0
   19.7317   17.3240   23.7470 H   0  0  0  0  0  0  0  0  0  0  0  0
   17.9074   18.5130   23.7066 C   0  0  0  0  0  0  0  0  0  0  0  0
   17.4290   17.8714   24.4596 H   0  0  0  0  0  0  0  0  0  0  0  0
   17.5897   19.5368   23.9474 H   0  0  0  0  0  0  0  0  0  0  0  0
   17.3719   18.0993   22.3113 C   0  0  0  0  0  0  0  0  0  0  0  0
   16.3917   17.6194   22.4409 H   0  0  0  0  0  0  0  0  0  0  0  0
   18.0234   17.3368   21.8620 H   0  0  0  0  0  0  0  0  0  0  0  0
   17.1929   19.2927   21.3436 C   0  0  0  0  0  0  0  0  0  0  0  0
   18.1375   19.8119   21.1480 H   0  0  0  0  0  0  0  0  0  0  0  0
   16.4840   20.0247   21.7517 H   0  0  0  0  0  0  0  0  0  0  0  0
   16.7969   18.9488   20.3793 H   0  0  0  0  0  0  0  0  0  0  0  0
   23.7058   19.6468   24.7375 C   0  0  0  0  0  0  0  0  0  0  0  0
   24.2014   20.2071   23.9416 H   0  0  0  0  0  0  0  0  0  0  0  0
   23.9850   20.0607   25.7090 H   0  0  0  0  0  0  0  0  0  0  0  0
   23.9974   18.5954   24.6868 H   0  0  0  0  0  0  0  0  0  0  0  0
  1  2  1  0  0  0  0
  1  3  1  0  0  0  0
  1  4  1  0  0  0  0
  4  5  1  0  0  0  0
  4  6  1  0  0  0  0
  4  7  1  0  0  0  0
  7  8  1  0  0  0  0
  7  9  1  0  0  0  0
  7 10  1  0  0  0  0
 10 11  1  0  0  0  0
 10 12  1  0  0  0  0
 10 13  1  0  0  0  0
 13 14  1  0  0  0  0
 13 15  1  0  0  0  0
 13 16  1  0  0  0  0
 16 17  1  0  0  0  0
 16 18  1  0  0  0  0
 16 19  1  0  0  0  0
 19 20  1  0  0  0  0
 19 21  1  0  0  0  0
 19 22  1  0  0  0  0
  1 23  1  0  0  0  0
 23 24  1  0  0  0  0
 23 25  1  0  0  0  0
 23 26  1  0  0  0  0
M  END
> <VConfSearch Rank>
450

> <Conf_Id>
76

> <Delta U+W>
3.468

> <U+W>
25.310

> <U>
74.594

> <W>
-49.283

> <W(PB)>
-51.537

> <W(SA)>
2.253

> <Valence>
4.886

> <Coulomb>
69.332

> <VdW>
0.376

> <VdW6>
-7.329

> <VdW12>
7.705

> <Bond>
0.232

> <Angle>
1.251

> <Pdih>
3.403

> <Idih>
0.000

> <Tether>
0.000

$$$$
VeraChem MOL file


 26 25  0  0  0  0  0  0  0  0999 V2000     
   18.4960   20.5999   24.9696 N   0  3  0  0  0  0  0  0  0  0  0  0
   18.8765   20.0185   25.7323 H   0  0  0  0  0  0  0  0  0  0  0  0
   17.5625   20.2099   24.7663 H   0  0  0  0  0  0  0  0  0  0  0  0
   19.3822   20.5011   23.7441 C   0  0  0  0  0  0  0  0  0  0  0  0
   20.3595   20.9163   24.0028 H   0  0  0  0  0  0  0  0  0  0  0  0
   18.9409   21.1219   22.9603 H   0  0  0  0  0  0  0  0  0  0  0  0
   19.5517   19.0602   23.2295 C   0  0  0  0  0  0  0  0  0  0  0  0
   19.9706   18.4393   24.0293 H   0  0  0  0  0  0  0  0  0  0  0  0
   18.5650   18.6433   22.9875 H   0  0  0  0  0  0  0  0  0  0  0  0
   20.4545   19.0137   21.9732 C   0  0  0  0  0  0  0  0  0  0  0  0
   21.4268   19.4809   22.1824 H   0  0  0  0  0  0  0  0  0  0  0  0
   19.9846   19.6285   21.1929 H   0  0  0  0  0  0  0  0  0  0  0  0
   20.6612   17.5823   21.4119 C   0  0  0  0  0  0  0  0  0  0  0  0
   19.7825   16.9580   21.6248 H   0  0  0  0  0  0  0  0  0  0  0  0
   20.7169   17.6496   20.3165 H   0  0  0  0  0  0  0  0  0  0  0  0
   21.9502   16.8728   21.9005 C   0  0  0  0  0  0  0  0  0  0  0  0
   22.8304   17.4530   21.5901 H   0  0  0  0  0  0  0  0  0  0  0  0
   22.0295   15.9038   21.3881 H   0  0  0  0  0  0  0  0  0  0  0  0
   22.0071   16.6322   23.4250 C   0  0  0  0  0  0  0  0  0  0  0  0
   21.1075   16.1120   23.7785 H   0  0  0  0  0  0  0  0  0  0  0  0
   22.1050   17.5766   23.9743 H   0  0  0  0  0  0  0  0  0  0  0  0
   22.8759   16.0129   23.6829 H   0  0  0  0  0  0  0  0  0  0  0  0
   18.3830   22.0525   25.4112 C   0  0  0  0  0  0  0  0  0  0  0  0
   19.3780   22.4331   25.6522 H   0  0  0  0  0  0  0  0  0  0  0  0
   17.9477   22.6414   24.6008 H   0  0  0  0  0  0  0  0  0  0  0  0
   17.7423   22.1097   26.2940 H   0  0  0  0  0  0  0  0  0  0  0  0
  1  2  1  0  0  0  0
  1  3  1  0  0  0  0
  1  4  1  0  0  0  0
  4  5  1  0  0  0  0
  4  6  1  0  0  0  0
  4  7  1  0  0  0  0
  7  8  1  0  0  0  0
  7  9  1  0  0  0  0
  7 10  1  0  0  0  0
 10 11  1  0  0  0  0
 10 12  1  0  0  0  0
 10 13  1  0  0  0  0
 13 14  1  0  0  0  0
 13 15  1  0  0  0  0
 13 16  1  0  0  0  0
 16 17  1  0  0  0  0
 16 18  1  0  0  0  0
 16 19  1  0  0  0  0
 19 20  1  0  0  0  0
 19 21  1  0  0  0  0
 19 22  1  0  0  0  0
  1 23  1  0  0  0  0
 23 24  1  0  0  0  0
 23 25  1  0  0  0  0
 23 26  1  0  0  0  0
M  END
> <VConfSearch Rank>
451

> <Conf_Id>
123

> <Delta U+W>
3.101

> <U+W>
24.943

> <U>
74.070

> <W>
-49.127

> <W(PB)>
-51.421

> <W(SA)>
2.295

> <Valence>
4.690

> <Coulomb>
69.115

> <VdW>
0.266

> <VdW6>
-6.809

> <VdW12>
7.075

> <Bond>
0.212

> <Angle>
1.133

> <Pdih>
3.345

> <Idih>
0.000

> <Tether>
0.000

$$$$
VeraChem MOL file


 26 25  0  0  0  0  0  0  0  0999 V2000     
   21.7135   17.0294   23.1623 N   0  3  0  0  0  0  0  0  0  0  0  0
   21.6841   16.6379   24.1166 H   0  0  0  0  0  0  0  0  0  0  0  0
   22.3500   17.8389   23.2151 H   0  0  0  0  0  0  0  0  0  0  0  0
   20.3288   17.4822   22.7412 C   0  0  0  0  0  0  0  0  0  0  0  0
   19.6914   16.5954   22.6981 H   0  0  0  0  0  0  0  0  0  0  0  0
   20.4021   17.8988   21.7335 H   0  0  0  0  0  0  0  0  0  0  0  0
   19.6946   18.5213   23.6868 C   0  0  0  0  0  0  0  0  0  0  0  0
   18.6636   18.6968   23.3599 H   0  0  0  0  0  0  0  0  0  0  0  0
   19.6284   18.1006   24.6989 H   0  0  0  0  0  0  0  0  0  0  0  0
   20.4816   19.8564   23.7212 C   0  0  0  0  0  0  0  0  0  0  0  0
   20.6364   20.2356   22.7016 H   0  0  0  0  0  0  0  0  0  0  0  0
   21.4825   19.6617   24.1289 H   0  0  0  0  0  0  0  0  0  0  0  0
   19.8074   20.9455   24.5962 C   0  0  0  0  0  0  0  0  0  0  0  0
   19.2335   20.4806   25.4097 H   0  0  0  0  0  0  0  0  0  0  0  0
   20.5989   21.5275   25.0886 H   0  0  0  0  0  0  0  0  0  0  0  0
   18.9137   21.9431   23.8154 C   0  0  0  0  0  0  0  0  0  0  0  0
   19.5212   22.4780   23.0721 H   0  0  0  0  0  0  0  0  0  0  0  0
   18.5498   22.7073   24.5164 H   0  0  0  0  0  0  0  0  0  0  0  0
   17.6990   21.2965   23.1141 C   0  0  0  0  0  0  0  0  0  0  0  0
   17.1018   20.7054   23.8204 H   0  0  0  0  0  0  0  0  0  0  0  0
   18.0143   20.6445   22.2903 H   0  0  0  0  0  0  0  0  0  0  0  0
   17.0463   22.0693   22.6881 H   0  0  0  0  0  0  0  0  0  0  0  0
   22.2435   15.9972   22.1768 C   0  0  0  0  0  0  0  0  0  0  0  0
   22.2953   16.4444   21.1816 H   0  0  0  0  0  0  0  0  0  0  0  0
   23.2404   15.6804   22.4913 H   0  0  0  0  0  0  0  0  0  0  0  0
   21.5708   15.1369   22.1614 H   0  0  0  0  0  0  0  0  0  0  0  0
  1  2  1  0  0  0  0
  1  3  1  0  0  0  0
  1  4  1  0  0  0  0
  4  5  1  0  0  0  0
  4  6  1  0  0  0  0
  4  7  1  0  0  0  0
  7  8  1  0  0  0  0
  7  9  1  0  0  0  0
  7 10  1  0  0  0  0
 10 11  1  0  0  0  0
 10 12  1  0  0  0  0
 10 13  1  0  0  0  0
 13 14  1  0  0  0  0
 13 15  1  0  0  0  0
 13 16  1  0  0  0  0
 16 17  1  0  0  0  0
 16 18  1  0  0  0  0
 16 19  1  0  0  0  0
 19 20  1  0  0  0  0
 19 21  1  0  0  0  0
 19 22  1  0  0  0  0
  1 23  1  0  0  0  0
 23 24  1  0  0  0  0
 23 25  1  0  0  0  0
 23 26  1  0  0  0  0
M  END
> <VConfSearch Rank>
452

> <Conf_Id>
111

> <Delta U+W>
3.383

> <U+W>
25.225

> <U>
74.516

> <W>
-49.292

> <W(PB)>
-51.558

> <W(SA)>
2.266

> <Valence>
4.842

> <Coulomb>
69.333

> <VdW>
0.342

> <VdW6>
-7.369

> <VdW12>
7.711

> <Bond>
0.232

> <Angle>
1.153

> <Pdih>
3.457

> <Idih>
0.000

> <Tether>
0.000

$$$$
VeraChem MOL file


 26 25  0  0  0  0  0  0  0  0999 V2000     
   19.9947   16.9999   22.1477 N   0  3  0  0  0  0  0  0  0  0  0  0
   20.5455   16.9571   21.2762 H   0  0  0  0  0  0  0  0  0  0  0  0
   19.2959   17.7430   21.9975 H   0  0  0  0  0  0  0  0  0  0  0  0
   20.8925   17.3620   23.3146 C   0  0  0  0  0  0  0  0  0  0  0  0
   21.6230   16.5576   23.4323 H   0  0  0  0  0  0  0  0  0  0  0  0
   20.2763   17.3942   24.2161 H   0  0  0  0  0  0  0  0  0  0  0  0
   21.6330   18.7042   23.1396 C   0  0  0  0  0  0  0  0  0  0  0  0
   22.2902   18.8585   24.0057 H   0  0  0  0  0  0  0  0  0  0  0  0
   22.2924   18.6380   22.2641 H   0  0  0  0  0  0  0  0  0  0  0  0
   20.6976   19.9301   22.9839 C   0  0  0  0  0  0  0  0  0  0  0  0
   20.0955   19.8285   22.0713 H   0  0  0  0  0  0  0  0  0  0  0  0
   21.3247   20.8192   22.8379 H   0  0  0  0  0  0  0  0  0  0  0  0
   19.7671   20.1472   24.2046 C   0  0  0  0  0  0  0  0  0  0  0  0
   19.1559   19.2495   24.3663 H   0  0  0  0  0  0  0  0  0  0  0  0
   20.3718   20.2766   25.1127 H   0  0  0  0  0  0  0  0  0  0  0  0
   18.8120   21.3550   24.0443 C   0  0  0  0  0  0  0  0  0  0  0  0
   18.1147   21.3669   24.8937 H   0  0  0  0  0  0  0  0  0  0  0  0
   18.1957   21.2254   23.1437 H   0  0  0  0  0  0  0  0  0  0  0  0
   19.5426   22.7160   23.9834 C   0  0  0  0  0  0  0  0  0  0  0  0
   20.1582   22.8044   23.0798 H   0  0  0  0  0  0  0  0  0  0  0  0
   20.1917   22.8555   24.8576 H   0  0  0  0  0  0  0  0  0  0  0  0
   18.8179   23.5403   23.9693 H   0  0  0  0  0  0  0  0  0  0  0  0
   19.3092   15.6672   22.4144 C   0  0  0  0  0  0  0  0  0  0  0  0
   18.6656   15.4195   21.5674 H   0  0  0  0  0  0  0  0  0  0  0  0
   20.0683   14.8919   22.5400 H   0  0  0  0  0  0  0  0  0  0  0  0
   18.7086   15.7478   23.3231 H   0  0  0  0  0  0  0  0  0  0  0  0
  1  2  1  0  0  0  0
  1  3  1  0  0  0  0
  1  4  1  0  0  0  0
  4  5  1  0  0  0  0
  4  6  1  0  0  0  0
  4  7  1  0  0  0  0
  7  8  1  0  0  0  0
  7  9  1  0  0  0  0
  7 10  1  0  0  0  0
 10 11  1  0  0  0  0
 10 12  1  0  0  0  0
 10 13  1  0  0  0  0
 13 14  1  0  0  0  0
 13 15  1  0  0  0  0
 13 16  1  0  0  0  0
 16 17  1  0  0  0  0
 16 18  1  0  0  0  0
 16 19  1  0  0  0  0
 19 20  1  0  0  0  0
 19 21  1  0  0  0  0
 19 22  1  0  0  0  0
  1 23  1  0  0  0  0
 23 24  1  0  0  0  0
 23 25  1  0  0  0  0
 23 26  1  0  0  0  0
M  END
> <VConfSearch Rank>
453

> <Conf_Id>
126

> <Delta U+W>
1.519

> <U+W>
23.361

> <U>
72.579

> <W>
-49.218

> <W(PB)>
-51.496

> <W(SA)>
2.279

> <Valence>
2.678

> <Coulomb>
69.622

> <VdW>
0.279

> <VdW6>
-7.328

> <VdW12>
7.608

> <Bond>
0.212

> <Angle>
0.911

> <Pdih>
1.555

> <Idih>
0.000

> <Tether>
0.000

$$$$
VeraChem MOL file


 26 25  0  0  0  0  0  0  0  0999 V2000     
   19.2701   17.0912   22.2699 N   0  3  0  0  0  0  0  0  0  0  0  0
   19.3314   17.2406   23.2882 H   0  0  0  0  0  0  0  0  0  0  0  0
   20.0009   16.3978   22.0469 H   0  0  0  0  0  0  0  0  0  0  0  0
   19.5439   18.3908   21.5387 C   0  0  0  0  0  0  0  0  0  0  0  0
   18.7502   19.0959   21.7965 H   0  0  0  0  0  0  0  0  0  0  0  0
   19.4810   18.1872   20.4667 H   0  0  0  0  0  0  0  0  0  0  0  0
   20.9191   19.0112   21.8618 C   0  0  0  0  0  0  0  0  0  0  0  0
   21.7087   18.3173   21.5443 H   0  0  0  0  0  0  0  0  0  0  0  0
   21.0472   19.9175   21.2551 H   0  0  0  0  0  0  0  0  0  0  0  0
   21.1205   19.3656   23.3571 C   0  0  0  0  0  0  0  0  0  0  0  0
   22.1345   19.7688   23.4768 H   0  0  0  0  0  0  0  0  0  0  0  0
   21.0814   18.4532   23.9669 H   0  0  0  0  0  0  0  0  0  0  0  0
   20.0881   20.3941   23.8854 C   0  0  0  0  0  0  0  0  0  0  0  0
   20.1480   21.3170   23.2921 H   0  0  0  0  0  0  0  0  0  0  0  0
   19.0722   20.0022   23.7445 H   0  0  0  0  0  0  0  0  0  0  0  0
   20.2677   20.7326   25.3854 C   0  0  0  0  0  0  0  0  0  0  0  0
   20.1965   19.8147   25.9854 H   0  0  0  0  0  0  0  0  0  0  0  0
   19.4326   21.3724   25.7038 H   0  0  0  0  0  0  0  0  0  0  0  0
   21.5960   21.4581   25.6998 C   0  0  0  0  0  0  0  0  0  0  0  0
   21.7067   22.3628   25.0880 H   0  0  0  0  0  0  0  0  0  0  0  0
   22.4630   20.8111   25.5179 H   0  0  0  0  0  0  0  0  0  0  0  0
   21.6276   21.7609   26.7544 H   0  0  0  0  0  0  0  0  0  0  0  0
   17.8947   16.5614   21.8891 C   0  0  0  0  0  0  0  0  0  0  0  0
   17.1372   17.2988   22.1636 H   0  0  0  0  0  0  0  0  0  0  0  0
   17.8644   16.3830   20.8120 H   0  0  0  0  0  0  0  0  0  0  0  0
   17.7104   15.6266   22.4232 H   0  0  0  0  0  0  0  0  0  0  0  0
  1  2  1  0  0  0  0
  1  3  1  0  0  0  0
  1  4  1  0  0  0  0
  4  5  1  0  0  0  0
  4  6  1  0  0  0  0
  4  7  1  0  0  0  0
  7  8  1  0  0  0  0
  7  9  1  0  0  0  0
  7 10  1  0  0  0  0
 10 11  1  0  0  0  0
 10 12  1  0  0  0  0
 10 13  1  0  0  0  0
 13 14  1  0  0  0  0
 13 15  1  0  0  0  0
 13 16  1  0  0  0  0
 16 17  1  0  0  0  0
 16 18  1  0  0  0  0
 16 19  1  0  0  0  0
 19 20  1  0  0  0  0
 19 21  1  0  0  0  0
 19 22  1  0  0  0  0
  1 23  1  0  0  0  0
 23 24  1  0  0  0  0
 23 25  1  0  0  0  0
 23 26  1  0  0  0  0
M  END
> <VConfSearch Rank>
454

> <Conf_Id>
134

> <Delta U+W>
1.464

> <U+W>
23.306

> <U>
72.579

> <W>
-49.273

> <W(PB)>
-51.540

> <W(SA)>
2.267

> <Valence>
2.677

> <Coulomb>
69.622

> <VdW>
0.280

> <VdW6>
-7.328

> <VdW12>
7.608

> <Bond>
0.212

> <Angle>
0.911

> <Pdih>
1.555

> <Idih>
0.000

> <Tether>
0.000

$$$$
VeraChem MOL file


 26 25  0  0  0  0  0  0  0  0999 V2000     
   22.0798   18.5459   21.4041 N   0  3  0  0  0  0  0  0  0  0  0  0
   22.2883   17.7083   21.9696 H   0  0  0  0  0  0  0  0  0  0  0  0
   22.8021   19.2370   21.6602 H   0  0  0  0  0  0  0  0  0  0  0  0
   20.7025   19.0782   21.7457 C   0  0  0  0  0  0  0  0  0  0  0  0
   19.9701   18.3162   21.4676 H   0  0  0  0  0  0  0  0  0  0  0  0
   20.5251   19.9661   21.1336 H   0  0  0  0  0  0  0  0  0  0  0  0
   20.5393   19.4342   23.2344 C   0  0  0  0  0  0  0  0  0  0  0  0
   20.7376   18.5405   23.8394 H   0  0  0  0  0  0  0  0  0  0  0  0
   21.2870   20.1883   23.5139 H   0  0  0  0  0  0  0  0  0  0  0  0
   19.1202   19.9728   23.5322 C   0  0  0  0  0  0  0  0  0  0  0  0
   18.3731   19.2052   23.2900 H   0  0  0  0  0  0  0  0  0  0  0  0
   18.9117   20.8181   22.8617 H   0  0  0  0  0  0  0  0  0  0  0  0
   18.9322   20.4523   24.9951 C   0  0  0  0  0  0  0  0  0  0  0  0
   19.6099   21.2962   25.1844 H   0  0  0  0  0  0  0  0  0  0  0  0
   17.9154   20.8537   25.1061 H   0  0  0  0  0  0  0  0  0  0  0  0
   19.1650   19.3716   26.0819 C   0  0  0  0  0  0  0  0  0  0  0  0
   19.0043   19.8283   27.0686 H   0  0  0  0  0  0  0  0  0  0  0  0
   20.2126   19.0420   26.0720 H   0  0  0  0  0  0  0  0  0  0  0  0
   18.2314   18.1477   25.9427 C   0  0  0  0  0  0  0  0  0  0  0  0
   17.1775   18.4545   25.9311 H   0  0  0  0  0  0  0  0  0  0  0  0
   18.3714   17.4593   26.7861 H   0  0  0  0  0  0  0  0  0  0  0  0
   18.4369   17.5875   25.0221 H   0  0  0  0  0  0  0  0  0  0  0  0
   22.1555   18.2198   19.9190 C   0  0  0  0  0  0  0  0  0  0  0  0
   21.9644   19.1272   19.3418 H   0  0  0  0  0  0  0  0  0  0  0  0
   23.1520   17.8377   19.6864 H   0  0  0  0  0  0  0  0  0  0  0  0
   21.4051   17.4633   19.6787 H   0  0  0  0  0  0  0  0  0  0  0  0
  1  2  1  0  0  0  0
  1  3  1  0  0  0  0
  1  4  1  0  0  0  0
  4  5  1  0  0  0  0
  4  6  1  0  0  0  0
  4  7  1  0  0  0  0
  7  8  1  0  0  0  0
  7  9  1  0  0  0  0
  7 10  1  0  0  0  0
 10 11  1  0  0  0  0
 10 12  1  0  0  0  0
 10 13  1  0  0  0  0
 13 14  1  0  0  0  0
 13 15  1  0  0  0  0
 13 16  1  0  0  0  0
 16 17  1  0  0  0  0
 16 18  1  0  0  0  0
 16 19  1  0  0  0  0
 19 20  1  0  0  0  0
 19 21  1  0  0  0  0
 19 22  1  0  0  0  0
  1 23  1  0  0  0  0
 23 24  1  0  0  0  0
 23 25  1  0  0  0  0
 23 26  1  0  0  0  0
M  END
> <VConfSearch Rank>
455

> <Conf_Id>
30

> <Delta U+W>
0.910

> <U+W>
22.752

> <U>
71.870

> <W>
-49.118

> <W(PB)>
-51.409

> <W(SA)>
2.290

> <Valence>
2.682

> <Coulomb>
68.933

> <VdW>
0.255

> <VdW6>
-6.833

> <VdW12>
7.088

> <Bond>
0.205

> <Angle>
1.003

> <Pdih>
1.473

> <Idih>
0.000

> <Tether>
0.000

$$$$
VeraChem MOL file


 26 25  0  0  0  0  0  0  0  0999 V2000     
   18.2235   20.9230   24.4617 N   0  3  0  0  0  0  0  0  0  0  0  0
   18.8318   21.7533   24.5350 H   0  0  0  0  0  0  0  0  0  0  0  0
   18.3684   20.3981   25.3382 H   0  0  0  0  0  0  0  0  0  0  0  0
   18.6332   20.0781   23.2721 C   0  0  0  0  0  0  0  0  0  0  0  0
   18.4726   20.6715   22.3685 H   0  0  0  0  0  0  0  0  0  0  0  0
   17.9723   19.2084   23.2350 H   0  0  0  0  0  0  0  0  0  0  0  0
   20.0991   19.6122   23.3322 C   0  0  0  0  0  0  0  0  0  0  0  0
   20.7590   20.4882   23.3854 H   0  0  0  0  0  0  0  0  0  0  0  0
   20.2528   19.0335   24.2518 H   0  0  0  0  0  0  0  0  0  0  0  0
   20.4688   18.7560   22.0982 C   0  0  0  0  0  0  0  0  0  0  0  0
   20.2342   19.3237   21.1870 H   0  0  0  0  0  0  0  0  0  0  0  0
   19.8359   17.8591   22.0652 H   0  0  0  0  0  0  0  0  0  0  0  0
   21.9650   18.3507   22.0491 C   0  0  0  0  0  0  0  0  0  0  0  0
   22.1460   17.7835   21.1256 H   0  0  0  0  0  0  0  0  0  0  0  0
   22.5786   19.2585   21.9684 H   0  0  0  0  0  0  0  0  0  0  0  0
   22.4654   17.5156   23.2555 C   0  0  0  0  0  0  0  0  0  0  0  0
   22.4095   18.1090   24.1779 H   0  0  0  0  0  0  0  0  0  0  0  0
   23.5312   17.2922   23.1076 H   0  0  0  0  0  0  0  0  0  0  0  0
   21.7002   16.1858   23.4432 C   0  0  0  0  0  0  0  0  0  0  0  0
   20.6507   16.3598   23.7111 H   0  0  0  0  0  0  0  0  0  0  0  0
   22.1523   15.5923   24.2483 H   0  0  0  0  0  0  0  0  0  0  0  0
   21.7262   15.5827   22.5264 H   0  0  0  0  0  0  0  0  0  0  0  0
   16.7657   21.3396   24.3237 C   0  0  0  0  0  0  0  0  0  0  0  0
   16.4835   21.9473   25.1864 H   0  0  0  0  0  0  0  0  0  0  0  0
   16.6435   21.9210   23.4072 H   0  0  0  0  0  0  0  0  0  0  0  0
   16.1392   20.4459   24.2814 H   0  0  0  0  0  0  0  0  0  0  0  0
  1  2  1  0  0  0  0
  1  3  1  0  0  0  0
  1  4  1  0  0  0  0
  4  5  1  0  0  0  0
  4  6  1  0  0  0  0
  4  7  1  0  0  0  0
  7  8  1  0  0  0  0
  7  9  1  0  0  0  0
  7 10  1  0  0  0  0
 10 11  1  0  0  0  0
 10 12  1  0  0  0  0
 10 13  1  0  0  0  0
 13 14  1  0  0  0  0
 13 15  1  0  0  0  0
 13 16  1  0  0  0  0
 16 17  1  0  0  0  0
 16 18  1  0  0  0  0
 16 19  1  0  0  0  0
 19 20  1  0  0  0  0
 19 21  1  0  0  0  0
 19 22  1  0  0  0  0
  1 23  1  0  0  0  0
 23 24  1  0  0  0  0
 23 25  1  0  0  0  0
 23 26  1  0  0  0  0
M  END
> <VConfSearch Rank>
456

> <Conf_Id>
29

> <Delta U+W>
0.886

> <U+W>
22.729

> <U>
71.870

> <W>
-49.141

> <W(PB)>
-51.404

> <W(SA)>
2.262

> <Valence>
2.682

> <Coulomb>
68.933

> <VdW>
0.255

> <VdW6>
-6.833

> <VdW12>
7.088

> <Bond>
0.205

> <Angle>
1.003

> <Pdih>
1.473

> <Idih>
0.000

> <Tether>
0.000

$$$$
VeraChem MOL file


 26 25  0  0  0  0  0  0  0  0999 V2000     
   20.3555   18.3880   20.7821 N   0  3  0  0  0  0  0  0  0  0  0  0
   21.2711   18.6299   20.3723 H   0  0  0  0  0  0  0  0  0  0  0  0
   19.7361   19.1823   20.5586 H   0  0  0  0  0  0  0  0  0  0  0  0
   20.4808   18.2282   22.2837 C   0  0  0  0  0  0  0  0  0  0  0  0
   21.1525   17.3881   22.4773 H   0  0  0  0  0  0  0  0  0  0  0  0
   19.4924   17.9769   22.6758 H   0  0  0  0  0  0  0  0  0  0  0  0
   21.0133   19.4904   22.9885 C   0  0  0  0  0  0  0  0  0  0  0  0
   21.9903   19.7549   22.5627 H   0  0  0  0  0  0  0  0  0  0  0  0
   20.3476   20.3381   22.7824 H   0  0  0  0  0  0  0  0  0  0  0  0
   21.1694   19.2994   24.5177 C   0  0  0  0  0  0  0  0  0  0  0  0
   21.5685   20.2238   24.9561 H   0  0  0  0  0  0  0  0  0  0  0  0
   21.9325   18.5309   24.7032 H   0  0  0  0  0  0  0  0  0  0  0  0
   19.8674   18.8929   25.2597 C   0  0  0  0  0  0  0  0  0  0  0  0
   19.5623   17.8880   24.9378 H   0  0  0  0  0  0  0  0  0  0  0  0
   20.0886   18.8037   26.3323 H   0  0  0  0  0  0  0  0  0  0  0  0
   18.6725   19.8628   25.0749 C   0  0  0  0  0  0  0  0  0  0  0  0
   17.8115   19.4676   25.6317 H   0  0  0  0  0  0  0  0  0  0  0  0
   18.3628   19.8878   24.0215 H   0  0  0  0  0  0  0  0  0  0  0  0
   18.9664   21.2983   25.5667 C   0  0  0  0  0  0  0  0  0  0  0  0
   18.0660   21.9218   25.4936 H   0  0  0  0  0  0  0  0  0  0  0  0
   19.7496   21.7773   24.9662 H   0  0  0  0  0  0  0  0  0  0  0  0
   19.2898   21.2974   26.6157 H   0  0  0  0  0  0  0  0  0  0  0  0
   19.8183   17.1027   20.1679 C   0  0  0  0  0  0  0  0  0  0  0  0
   19.7332   17.2309   19.0865 H   0  0  0  0  0  0  0  0  0  0  0  0
   20.5065   16.2840   20.3892 H   0  0  0  0  0  0  0  0  0  0  0  0
   18.8356   16.8853   20.5921 H   0  0  0  0  0  0  0  0  0  0  0  0
  1  2  1  0  0  0  0
  1  3  1  0  0  0  0
  1  4  1  0  0  0  0
  4  5  1  0  0  0  0
  4  6  1  0  0  0  0
  4  7  1  0  0  0  0
  7  8  1  0  0  0  0
  7  9  1  0  0  0  0
  7 10  1  0  0  0  0
 10 11  1  0  0  0  0
 10 12  1  0  0  0  0
 10 13  1  0  0  0  0
 13 14  1  0  0  0  0
 13 15  1  0  0  0  0
 13 16  1  0  0  0  0
 16 17  1  0  0  0  0
 16 18  1  0  0  0  0
 16 19  1  0  0  0  0
 19 20  1  0  0  0  0
 19 21  1  0  0  0  0
 19 22  1  0  0  0  0
  1 23  1  0  0  0  0
 23 24  1  0  0  0  0
 23 25  1  0  0  0  0
 23 26  1  0  0  0  0
M  END
> <VConfSearch Rank>
457

> <Conf_Id>
82

> <Delta U+W>
1.026

> <U+W>
22.868

> <U>
72.455

> <W>
-49.586

> <W(PB)>
-51.821

> <W(SA)>
2.234

> <Valence>
2.908

> <Coulomb>
69.435

> <VdW>
0.112

> <VdW6>
-7.765

> <VdW12>
7.877

> <Bond>
0.233

> <Angle>
1.170

> <Pdih>
1.506

> <Idih>
0.000

> <Tether>
0.000

$$$$
VeraChem MOL file


 26 25  0  0  0  0  0  0  0  0999 V2000     
   21.7825   17.0600   23.4208 N   0  3  0  0  0  0  0  0  0  0  0  0
   22.5118   17.7746   23.5691 H   0  0  0  0  0  0  0  0  0  0  0  0
   22.0160   16.6118   22.5211 H   0  0  0  0  0  0  0  0  0  0  0  0
   20.4178   17.7138   23.3403 C   0  0  0  0  0  0  0  0  0  0  0  0
   20.2127   18.1771   24.3083 H   0  0  0  0  0  0  0  0  0  0  0  0
   19.6781   16.9274   23.1706 H   0  0  0  0  0  0  0  0  0  0  0  0
   20.3139   18.7722   22.2258 C   0  0  0  0  0  0  0  0  0  0  0  0
   21.0664   19.5546   22.3870 H   0  0  0  0  0  0  0  0  0  0  0  0
   20.5566   18.3048   21.2623 H   0  0  0  0  0  0  0  0  0  0  0  0
   18.9033   19.4054   22.1333 C   0  0  0  0  0  0  0  0  0  0  0  0
   18.1827   18.6263   21.8488 H   0  0  0  0  0  0  0  0  0  0  0  0
   18.8900   20.1342   21.3119 H   0  0  0  0  0  0  0  0  0  0  0  0
   18.4075   20.0851   23.4384 C   0  0  0  0  0  0  0  0  0  0  0  0
   17.4123   20.5130   23.2544 H   0  0  0  0  0  0  0  0  0  0  0  0
   18.2606   19.3218   24.2144 H   0  0  0  0  0  0  0  0  0  0  0  0
   19.3335   21.1957   23.9966 C   0  0  0  0  0  0  0  0  0  0  0  0
   20.3032   20.7708   24.2886 H   0  0  0  0  0  0  0  0  0  0  0  0
   18.8885   21.5910   24.9204 H   0  0  0  0  0  0  0  0  0  0  0  0
   19.5519   22.3652   23.0099 C   0  0  0  0  0  0  0  0  0  0  0  0
   20.0937   22.0397   22.1133 H   0  0  0  0  0  0  0  0  0  0  0  0
   20.1419   23.1615   23.4817 H   0  0  0  0  0  0  0  0  0  0  0  0
   18.5943   22.7991   22.6944 H   0  0  0  0  0  0  0  0  0  0  0  0
   21.8006   16.0367   24.5478 C   0  0  0  0  0  0  0  0  0  0  0  0
   21.0440   15.2737   24.3522 H   0  0  0  0  0  0  0  0  0  0  0  0
   22.7885   15.5731   24.5948 H   0  0  0  0  0  0  0  0  0  0  0  0
   21.5837   16.5394   25.4929 H   0  0  0  0  0  0  0  0  0  0  0  0
  1  2  1  0  0  0  0
  1  3  1  0  0  0  0
  1  4  1  0  0  0  0
  4  5  1  0  0  0  0
  4  6  1  0  0  0  0
  4  7  1  0  0  0  0
  7  8  1  0  0  0  0
  7  9  1  0  0  0  0
  7 10  1  0  0  0  0
 10 11  1  0  0  0  0
 10 12  1  0  0  0  0
 10 13  1  0  0  0  0
 13 14  1  0  0  0  0
 13 15  1  0  0  0  0
 13 16  1  0  0  0  0
 16 17  1  0  0  0  0
 16 18  1  0  0  0  0
 16 19  1  0  0  0  0
 19 20  1  0  0  0  0
 19 21  1  0  0  0  0
 19 22  1  0  0  0  0
  1 23  1  0  0  0  0
 23 24  1  0  0  0  0
 23 25  1  0  0  0  0
 23 26  1  0  0  0  0
M  END
> <VConfSearch Rank>
458

> <Conf_Id>
71

> <Delta U+W>
1.096

> <U+W>
22.938

> <U>
72.455

> <W>
-49.517

> <W(PB)>
-51.795

> <W(SA)>
2.278

> <Valence>
2.908

> <Coulomb>
69.435

> <VdW>
0.112

> <VdW6>
-7.766

> <VdW12>
7.877

> <Bond>
0.233

> <Angle>
1.170

> <Pdih>
1.506

> <Idih>
0.000

> <Tether>
0.000

$$$$
VeraChem MOL file


 26 25  0  0  0  0  0  0  0  0999 V2000     
   20.9081   21.3993   23.4078 N   0  3  0  0  0  0  0  0  0  0  0  0
   20.1171   21.0602   23.9753 H   0  0  0  0  0  0  0  0  0  0  0  0
   20.6242   22.3364   23.0808 H   0  0  0  0  0  0  0  0  0  0  0  0
   21.1195   20.4839   22.2123 C   0  0  0  0  0  0  0  0  0  0  0  0
   21.9751   20.8656   21.6495 H   0  0  0  0  0  0  0  0  0  0  0  0
   20.2360   20.5695   21.5753 H   0  0  0  0  0  0  0  0  0  0  0  0
   21.3510   18.9953   22.5583 C   0  0  0  0  0  0  0  0  0  0  0  0
   21.4825   18.4347   21.6234 H   0  0  0  0  0  0  0  0  0  0  0  0
   22.2964   18.8925   23.1064 H   0  0  0  0  0  0  0  0  0  0  0  0
   20.2092   18.3503   23.3839 C   0  0  0  0  0  0  0  0  0  0  0  0
   20.1218   18.8536   24.3559 H   0  0  0  0  0  0  0  0  0  0  0  0
   20.4921   17.3124   23.6022 H   0  0  0  0  0  0  0  0  0  0  0  0
   18.8413   18.3721   22.6551 C   0  0  0  0  0  0  0  0  0  0  0  0
   18.5709   19.4073   22.4092 H   0  0  0  0  0  0  0  0  0  0  0  0
   18.9237   17.8391   21.6979 H   0  0  0  0  0  0  0  0  0  0  0  0
   17.6894   17.7600   23.4888 C   0  0  0  0  0  0  0  0  0  0  0  0
   16.7438   17.9181   22.9514 H   0  0  0  0  0  0  0  0  0  0  0  0
   17.5935   18.2977   24.4425 H   0  0  0  0  0  0  0  0  0  0  0  0
   17.8593   16.2475   23.7593 C   0  0  0  0  0  0  0  0  0  0  0  0
   18.7244   16.0467   24.4031 H   0  0  0  0  0  0  0  0  0  0  0  0
   17.9902   15.6908   22.8224 H   0  0  0  0  0  0  0  0  0  0  0  0
   16.9722   15.8463   24.2663 H   0  0  0  0  0  0  0  0  0  0  0  0
   22.1731   21.5049   24.2517 C   0  0  0  0  0  0  0  0  0  0  0  0
   21.9931   22.1921   25.0813 H   0  0  0  0  0  0  0  0  0  0  0  0
   22.4303   20.5179   24.6414 H   0  0  0  0  0  0  0  0  0  0  0  0
   22.9881   21.8823   23.6303 H   0  0  0  0  0  0  0  0  0  0  0  0
  1  2  1  0  0  0  0
  1  3  1  0  0  0  0
  1  4  1  0  0  0  0
  4  5  1  0  0  0  0
  4  6  1  0  0  0  0
  4  7  1  0  0  0  0
  7  8  1  0  0  0  0
  7  9  1  0  0  0  0
  7 10  1  0  0  0  0
 10 11  1  0  0  0  0
 10 12  1  0  0  0  0
 10 13  1  0  0  0  0
 13 14  1  0  0  0  0
 13 15  1  0  0  0  0
 13 16  1  0  0  0  0
 16 17  1  0  0  0  0
 16 18  1  0  0  0  0
 16 19  1  0  0  0  0
 19 20  1  0  0  0  0
 19 21  1  0  0  0  0
 19 22  1  0  0  0  0
  1 23  1  0  0  0  0
 23 24  1  0  0  0  0
 23 25  1  0  0  0  0
 23 26  1  0  0  0  0
M  END
> <VConfSearch Rank>
459

> <Conf_Id>
84

> <Delta U+W>
1.456

> <U+W>
23.298

> <U>
73.042

> <W>
-49.744

> <W(PB)>
-51.966

> <W(SA)>
2.222

> <Valence>
2.938

> <Coulomb>
69.625

> <VdW>
0.478

> <VdW6>
-8.182

> <VdW12>
8.660

> <Bond>
0.253

> <Angle>
1.038

> <Pdih>
1.647

> <Idih>
0.000

> <Tether>
0.000

$$$$
VeraChem MOL file


 26 25  0  0  0  0  0  0  0  0999 V2000     
   18.9259   20.5615   21.7007 N   0  3  0  0  0  0  0  0  0  0  0  0
   18.6493   20.4785   22.6905 H   0  0  0  0  0  0  0  0  0  0  0  0
   18.0888   20.3018   21.1562 H   0  0  0  0  0  0  0  0  0  0  0  0
   20.0620   19.6041   21.3986 C   0  0  0  0  0  0  0  0  0  0  0  0
   20.9283   19.9128   21.9885 H   0  0  0  0  0  0  0  0  0  0  0  0
   20.3153   19.7139   20.3411 H   0  0  0  0  0  0  0  0  0  0  0  0
   19.7290   18.1271   21.6947 C   0  0  0  0  0  0  0  0  0  0  0  0
   18.8911   17.8127   21.0584 H   0  0  0  0  0  0  0  0  0  0  0  0
   20.5861   17.5077   21.3990 H   0  0  0  0  0  0  0  0  0  0  0  0
   19.3814   17.8429   23.1779 C   0  0  0  0  0  0  0  0  0  0  0  0
   19.1493   16.7739   23.2830 H   0  0  0  0  0  0  0  0  0  0  0  0
   18.4660   18.3813   23.4576 H   0  0  0  0  0  0  0  0  0  0  0  0
   20.5247   18.2118   24.1538 C   0  0  0  0  0  0  0  0  0  0  0  0
   21.4443   17.6894   23.8557 H   0  0  0  0  0  0  0  0  0  0  0  0
   20.7372   19.2877   24.0955 H   0  0  0  0  0  0  0  0  0  0  0  0
   20.1749   17.8442   25.6131 C   0  0  0  0  0  0  0  0  0  0  0  0
   19.9703   16.7668   25.6860 H   0  0  0  0  0  0  0  0  0  0  0  0
   19.2544   18.3625   25.9162 H   0  0  0  0  0  0  0  0  0  0  0  0
   21.3149   18.2152   26.5855 C   0  0  0  0  0  0  0  0  0  0  0  0
   22.2415   17.6856   26.3282 H   0  0  0  0  0  0  0  0  0  0  0  0
   21.0484   17.9461   27.6159 H   0  0  0  0  0  0  0  0  0  0  0  0
   21.5195   19.2935   26.5615 H   0  0  0  0  0  0  0  0  0  0  0  0
   19.3509   21.9880   21.3822 C   0  0  0  0  0  0  0  0  0  0  0  0
   19.6097   22.0575   20.3234 H   0  0  0  0  0  0  0  0  0  0  0  0
   18.5244   22.6664   21.6052 H   0  0  0  0  0  0  0  0  0  0  0  0
   20.2178   22.2494   21.9931 H   0  0  0  0  0  0  0  0  0  0  0  0
  1  2  1  0  0  0  0
  1  3  1  0  0  0  0
  1  4  1  0  0  0  0
  4  5  1  0  0  0  0
  4  6  1  0  0  0  0
  4  7  1  0  0  0  0
  7  8  1  0  0  0  0
  7  9  1  0  0  0  0
  7 10  1  0  0  0  0
 10 11  1  0  0  0  0
 10 12  1  0  0  0  0
 10 13  1  0  0  0  0
 13 14  1  0  0  0  0
 13 15  1  0  0  0  0
 13 16  1  0  0  0  0
 16 17  1  0  0  0  0
 16 18  1  0  0  0  0
 16 19  1  0  0  0  0
 19 20  1  0  0  0  0
 19 21  1  0  0  0  0
 19 22  1  0  0  0  0
  1 23  1  0  0  0  0
 23 24  1  0  0  0  0
 23 25  1  0  0  0  0
 23 26  1  0  0  0  0
M  END
> <VConfSearch Rank>
460

> <Conf_Id>
73

> <Delta U+W>
0.884

> <U+W>
22.726

> <U>
71.905

> <W>
-49.179

> <W(PB)>
-51.494

> <W(SA)>
2.315

> <Valence>
2.125

> <Coulomb>
69.686

> <VdW>
0.093

> <VdW6>
-6.766

> <VdW12>
6.859

> <Bond>
0.169

> <Angle>
0.621

> <Pdih>
1.336

> <Idih>
0.000

> <Tether>
0.000

$$$$
VeraChem MOL file


 26 25  0  0  0  0  0  0  0  0999 V2000     
   17.4941   17.2518   22.5208 N   0  3  0  0  0  0  0  0  0  0  0  0
   17.9481   16.3474   22.7228 H   0  0  0  0  0  0  0  0  0  0  0  0
   17.5771   17.3786   21.5000 H   0  0  0  0  0  0  0  0  0  0  0  0
   18.2125   18.3714   23.2469 C   0  0  0  0  0  0  0  0  0  0  0  0
   18.1082   18.1958   24.3206 H   0  0  0  0  0  0  0  0  0  0  0  0
   17.7076   19.3089   23.0007 H   0  0  0  0  0  0  0  0  0  0  0  0
   19.7044   18.4751   22.8815 C   0  0  0  0  0  0  0  0  0  0  0  0
   20.2043   17.5256   23.1151 H   0  0  0  0  0  0  0  0  0  0  0  0
   19.8050   18.6350   21.7997 H   0  0  0  0  0  0  0  0  0  0  0  0
   20.3943   19.6278   23.6442 C   0  0  0  0  0  0  0  0  0  0  0  0
   20.2868   19.4670   24.7261 H   0  0  0  0  0  0  0  0  0  0  0  0
   19.8878   20.5752   23.4123 H   0  0  0  0  0  0  0  0  0  0  0  0
   21.8934   19.7418   23.2850 C   0  0  0  0  0  0  0  0  0  0  0  0
   22.4001   18.7947   23.5170 H   0  0  0  0  0  0  0  0  0  0  0  0
   22.0011   19.9027   22.2033 H   0  0  0  0  0  0  0  0  0  0  0  0
   22.5832   20.8947   24.0480 C   0  0  0  0  0  0  0  0  0  0  0  0
   22.4803   20.7372   25.1309 H   0  0  0  0  0  0  0  0  0  0  0  0
   22.0814   21.8450   23.8173 H   0  0  0  0  0  0  0  0  0  0  0  0
   24.0799   21.0054   23.6868 C   0  0  0  0  0  0  0  0  0  0  0  0
   24.5519   21.8290   24.2382 H   0  0  0  0  0  0  0  0  0  0  0  0
   24.2142   21.1977   22.6144 H   0  0  0  0  0  0  0  0  0  0  0  0
   24.6162   20.0811   23.9382 H   0  0  0  0  0  0  0  0  0  0  0  0
   16.0301   17.2194   22.9376 C   0  0  0  0  0  0  0  0  0  0  0  0
   15.5632   18.1737   22.6839 H   0  0  0  0  0  0  0  0  0  0  0  0
   15.5247   16.4090   22.4076 H   0  0  0  0  0  0  0  0  0  0  0  0
   15.9671   17.0513   24.0150 H   0  0  0  0  0  0  0  0  0  0  0  0
  1  2  1  0  0  0  0
  1  3  1  0  0  0  0
  1  4  1  0  0  0  0
  4  5  1  0  0  0  0
  4  6  1  0  0  0  0
  4  7  1  0  0  0  0
  7  8  1  0  0  0  0
  7  9  1  0  0  0  0
  7 10  1  0  0  0  0
 10 11  1  0  0  0  0
 10 12  1  0  0  0  0
 10 13  1  0  0  0  0
 13 14  1  0  0  0  0
 13 15  1  0  0  0  0
 13 16  1  0  0  0  0
 16 17  1  0  0  0  0
 16 18  1  0  0  0  0
 16 19  1  0  0  0  0
 19 20  1  0  0  0  0
 19 21  1  0  0  0  0
 19 22  1  0  0  0  0
  1 23  1  0  0  0  0
 23 24  1  0  0  0  0
 23 25  1  0  0  0  0
 23 26  1  0  0  0  0
M  END
> <VConfSearch Rank>
461

> <Conf_Id>
11

> <Delta U+W>
0.000

> <U+W>
21.842

> <U>
70.357

> <W>
-48.515

> <W(PB)>
-50.856

> <W(SA)>
2.341

> <Valence>
1.714

> <Coulomb>
68.480

> <VdW>
0.163

> <VdW6>
-5.268

> <VdW12>
5.431

> <Bond>
0.126

> <Angle>
0.350

> <Pdih>
1.238

> <Idih>
0.000

> <Tether>
0.000

$$$$
VeraChem MOL file


 26 25  0  0  0  0  0  0  0  0999 V2000     
   20.8019   17.5303   26.1773 N   0  3  0  0  0  0  0  0  0  0  0  0
   20.3480   16.9313   26.8852 H   0  0  0  0  0  0  0  0  0  0  0  0
   21.0108   18.4125   26.6699 H   0  0  0  0  0  0  0  0  0  0  0  0
   19.8365   17.7840   25.0316 C   0  0  0  0  0  0  0  0  0  0  0  0
   18.8865   18.0984   25.4714 H   0  0  0  0  0  0  0  0  0  0  0  0
   19.6727   16.8360   24.5132 H   0  0  0  0  0  0  0  0  0  0  0  0
   20.3028   18.8574   24.0271 C   0  0  0  0  0  0  0  0  0  0  0  0
   20.5124   19.7920   24.5641 H   0  0  0  0  0  0  0  0  0  0  0  0
   21.2410   18.5404   23.5538 H   0  0  0  0  0  0  0  0  0  0  0  0
   19.2368   19.1112   22.9382 C   0  0  0  0  0  0  0  0  0  0  0  0
   18.2969   19.4268   23.4123 H   0  0  0  0  0  0  0  0  0  0  0  0
   19.0252   18.1723   22.4076 H   0  0  0  0  0  0  0  0  0  0  0  0
   19.6912   20.1866   21.9251 C   0  0  0  0  0  0  0  0  0  0  0  0
   19.9031   21.1253   22.4556 H   0  0  0  0  0  0  0  0  0  0  0  0
   20.6309   19.8711   21.4508 H   0  0  0  0  0  0  0  0  0  0  0  0
   18.6248   20.4401   20.8362 C   0  0  0  0  0  0  0  0  0  0  0  0
   17.6834   20.7585   21.3056 H   0  0  0  0  0  0  0  0  0  0  0  0
   18.4111   19.5043   20.3009 H   0  0  0  0  0  0  0  0  0  0  0  0
   19.0821   21.5144   19.8264 C   0  0  0  0  0  0  0  0  0  0  0  0
   18.3123   21.6803   19.0616 H   0  0  0  0  0  0  0  0  0  0  0  0
   20.0042   21.2088   19.3150 H   0  0  0  0  0  0  0  0  0  0  0  0
   19.2708   22.4728   20.3276 H   0  0  0  0  0  0  0  0  0  0  0  0
   22.0834   16.8680   25.6840 C   0  0  0  0  0  0  0  0  0  0  0  0
   22.5904   17.5363   24.9852 H   0  0  0  0  0  0  0  0  0  0  0  0
   22.7341   16.6685   26.5384 H   0  0  0  0  0  0  0  0  0  0  0  0
   21.8329   15.9296   25.1845 H   0  0  0  0  0  0  0  0  0  0  0  0
  1  2  1  0  0  0  0
  1  3  1  0  0  0  0
  1  4  1  0  0  0  0
  4  5  1  0  0  0  0
  4  6  1  0  0  0  0
  4  7  1  0  0  0  0
  7  8  1  0  0  0  0
  7  9  1  0  0  0  0
  7 10  1  0  0  0  0
 10 11  1  0  0  0  0
 10 12  1  0  0  0  0
 10 13  1  0  0  0  0
 13 14  1  0  0  0  0
 13 15  1  0  0  0  0
 13 16  1  0  0  0  0
 16 17  1  0  0  0  0
 16 18  1  0  0  0  0
 16 19  1  0  0  0  0
 19 20  1  0  0  0  0
 19 21  1  0  0  0  0
 19 22  1  0  0  0  0
  1 23  1  0  0  0  0
 23 24  1  0  0  0  0
 23 25  1  0  0  0  0
 23 26  1  0  0  0  0
M  END
> <VConfSearch Rank>
462

> <Conf_Id>
102

> <Delta U+W>
0.121

> <U+W>
21.963

> <U>
70.745

> <W>
-48.782

> <W(PB)>
-51.111

> <W(SA)>
2.329

> <Valence>
1.993

> <Coulomb>
68.323

> <VdW>
0.429

> <VdW6>
-5.973

> <VdW12>
6.402

> <Bond>
0.161

> <Angle>
0.472

> <Pdih>
1.360

> <Idih>
0.000

> <Tether>
0.000

$$$$
VeraChem MOL file


 26 25  0  0  0  0  0  0  0  0999 V2000     
   17.8027   16.5842   23.2123 N   0  3  0  0  0  0  0  0  0  0  0  0
   17.2876   16.9751   22.4084 H   0  0  0  0  0  0  0  0  0  0  0  0
   17.0740   16.1950   23.8315 H   0  0  0  0  0  0  0  0  0  0  0  0
   18.5536   17.6861   23.9413 C   0  0  0  0  0  0  0  0  0  0  0  0
   19.1153   17.2269   24.7585 H   0  0  0  0  0  0  0  0  0  0  0  0
   17.8065   18.3544   24.3770 H   0  0  0  0  0  0  0  0  0  0  0  0
   19.5041   18.5111   23.0499 C   0  0  0  0  0  0  0  0  0  0  0  0
   20.2796   17.8576   22.6297 H   0  0  0  0  0  0  0  0  0  0  0  0
   18.9407   18.9275   22.2044 H   0  0  0  0  0  0  0  0  0  0  0  0
   20.1706   19.6557   23.8450 C   0  0  0  0  0  0  0  0  0  0  0  0
   20.7279   19.2353   24.6938 H   0  0  0  0  0  0  0  0  0  0  0  0
   19.3941   20.3088   24.2672 H   0  0  0  0  0  0  0  0  0  0  0  0
   21.1255   20.4916   22.9625 C   0  0  0  0  0  0  0  0  0  0  0  0
   21.9022   19.8387   22.5406 H   0  0  0  0  0  0  0  0  0  0  0  0
   20.5684   20.9117   22.1136 H   0  0  0  0  0  0  0  0  0  0  0  0
   21.7918   21.6364   23.7580 C   0  0  0  0  0  0  0  0  0  0  0  0
   22.3524   21.2210   24.6072 H   0  0  0  0  0  0  0  0  0  0  0  0
   21.0189   22.2940   24.1801 H   0  0  0  0  0  0  0  0  0  0  0  0
   22.7447   22.4687   22.8737 C   0  0  0  0  0  0  0  0  0  0  0  0
   23.5497   21.8445   22.4643 H   0  0  0  0  0  0  0  0  0  0  0  0
   23.2078   23.2760   23.4558 H   0  0  0  0  0  0  0  0  0  0  0  0
   22.2057   22.9258   22.0336 H   0  0  0  0  0  0  0  0  0  0  0  0
   18.7473   15.4748   22.7638 C   0  0  0  0  0  0  0  0  0  0  0  0
   19.2636   15.0686   23.6364 H   0  0  0  0  0  0  0  0  0  0  0  0
   18.1675   14.6865   22.2786 H   0  0  0  0  0  0  0  0  0  0  0  0
   19.4748   15.8818   22.0587 H   0  0  0  0  0  0  0  0  0  0  0  0
  1  2  1  0  0  0  0
  1  3  1  0  0  0  0
  1  4  1  0  0  0  0
  4  5  1  0  0  0  0
  4  6  1  0  0  0  0
  4  7  1  0  0  0  0
  7  8  1  0  0  0  0
  7  9  1  0  0  0  0
  7 10  1  0  0  0  0
 10 11  1  0  0  0  0
 10 12  1  0  0  0  0
 10 13  1  0  0  0  0
 13 14  1  0  0  0  0
 13 15  1  0  0  0  0
 13 16  1  0  0  0  0
 16 17  1  0  0  0  0
 16 18  1  0  0  0  0
 16 19  1  0  0  0  0
 19 20  1  0  0  0  0
 19 21  1  0  0  0  0
 19 22  1  0  0  0  0
  1 23  1  0  0  0  0
 23 24  1  0  0  0  0
 23 25  1  0  0  0  0
 23 26  1  0  0  0  0
M  END
> <VConfSearch Rank>
463

> <Conf_Id>
37

> <Delta U+W>
0.125

> <U+W>
21.967

> <U>
70.745

> <W>
-48.778

> <W(PB)>
-51.115

> <W(SA)>
2.337

> <Valence>
1.993

> <Coulomb>
68.323

> <VdW>
0.429

> <VdW6>
-5.973

> <VdW12>
6.403

> <Bond>
0.161

> <Angle>
0.472

> <Pdih>
1.360

> <Idih>
0.000

> <Tether>
0.000

$$$$
VeraChem MOL file


 26 25  0  0  0  0  0  0  0  0999 V2000     
   20.8673   16.8653   25.1762 N   0  3  0  0  0  0  0  0  0  0  0  0
   20.5020   17.0381   26.1257 H   0  0  0  0  0  0  0  0  0  0  0  0
   21.8690   17.1093   25.2189 H   0  0  0  0  0  0  0  0  0  0  0  0
   20.1557   17.7506   24.1730 C   0  0  0  0  0  0  0  0  0  0  0  0
   19.0999   17.4682   24.1662 H   0  0  0  0  0  0  0  0  0  0  0  0
   20.5756   17.5392   23.1869 H   0  0  0  0  0  0  0  0  0  0  0  0
   20.2880   19.2536   24.4862 C   0  0  0  0  0  0  0  0  0  0  0  0
   19.9056   19.4429   25.4980 H   0  0  0  0  0  0  0  0  0  0  0  0
   21.3486   19.5381   24.4927 H   0  0  0  0  0  0  0  0  0  0  0  0
   19.5167   20.1453   23.4843 C   0  0  0  0  0  0  0  0  0  0  0  0
   19.5671   21.1829   23.8391 H   0  0  0  0  0  0  0  0  0  0  0  0
   18.4539   19.8661   23.4883 H   0  0  0  0  0  0  0  0  0  0  0  0
   20.0747   20.0615   22.0406 C   0  0  0  0  0  0  0  0  0  0  0  0
   21.1320   20.3605   22.0339 H   0  0  0  0  0  0  0  0  0  0  0  0
   20.0464   19.0196   21.6954 H   0  0  0  0  0  0  0  0  0  0  0  0
   19.2882   20.9256   21.0249 C   0  0  0  0  0  0  0  0  0  0  0  0
   18.2316   20.6232   21.0188 H   0  0  0  0  0  0  0  0  0  0  0  0
   19.6719   20.7191   20.0159 H   0  0  0  0  0  0  0  0  0  0  0  0
   19.3933   22.4442   21.2944 C   0  0  0  0  0  0  0  0  0  0  0  0
   18.9083   22.7218   22.2383 H   0  0  0  0  0  0  0  0  0  0  0  0
   18.9018   23.0111   20.4932 H   0  0  0  0  0  0  0  0  0  0  0  0
   20.4418   22.7662   21.3380 H   0  0  0  0  0  0  0  0  0  0  0  0
   20.6897   15.4024   24.7937 C   0  0  0  0  0  0  0  0  0  0  0  0
   21.1130   15.2369   23.8005 H   0  0  0  0  0  0  0  0  0  0  0  0
   21.2066   14.7760   25.5241 H   0  0  0  0  0  0  0  0  0  0  0  0
   19.6249   15.1595   24.7874 H   0  0  0  0  0  0  0  0  0  0  0  0
  1  2  1  0  0  0  0
  1  3  1  0  0  0  0
  1  4  1  0  0  0  0
  4  5  1  0  0  0  0
  4  6  1  0  0  0  0
  4  7  1  0  0  0  0
  7  8  1  0  0  0  0
  7  9  1  0  0  0  0
  7 10  1  0  0  0  0
 10 11  1  0  0  0  0
 10 12  1  0  0  0  0
 10 13  1  0  0  0  0
 13 14  1  0  0  0  0
 13 15  1  0  0  0  0
 13 16  1  0  0  0  0
 16 17  1  0  0  0  0
 16 18  1  0  0  0  0
 16 19  1  0  0  0  0
 19 20  1  0  0  0  0
 19 21  1  0  0  0  0
 19 22  1  0  0  0  0
  1 23  1  0  0  0  0
 23 24  1  0  0  0  0
 23 25  1  0  0  0  0
 23 26  1  0  0  0  0
M  END
> <VConfSearch Rank>
464

> <Conf_Id>
137

> <Delta U+W>
1.038

> <U+W>
22.880

> <U>
71.810

> <W>
-48.930

> <W(PB)>
-51.257

> <W(SA)>
2.327

> <Valence>
2.568

> <Coulomb>
68.877

> <VdW>
0.364

> <VdW6>
-6.470

> <VdW12>
6.834

> <Bond>
0.191

> <Angle>
0.752

> <Pdih>
1.626

> <Idih>
0.000

> <Tether>
0.000

$$$$
VeraChem MOL file


 26 25  0  0  0  0  0  0  0  0999 V2000     
   19.7809   21.9021   24.1296 N   0  3  0  0  0  0  0  0  0  0  0  0
   19.9675   22.1554   23.1469 H   0  0  0  0  0  0  0  0  0  0  0  0
   20.6949   21.9561   24.6054 H   0  0  0  0  0  0  0  0  0  0  0  0
   19.2313   20.4921   24.2112 C   0  0  0  0  0  0  0  0  0  0  0  0
   18.2705   20.4760   23.6905 H   0  0  0  0  0  0  0  0  0  0  0  0
   19.0557   20.2613   25.2649 H   0  0  0  0  0  0  0  0  0  0  0  0
   20.1697   19.4362   23.5991 C   0  0  0  0  0  0  0  0  0  0  0  0
   20.3534   19.6890   22.5473 H   0  0  0  0  0  0  0  0  0  0  0  0
   21.1388   19.4672   24.1146 H   0  0  0  0  0  0  0  0  0  0  0  0
   19.5664   18.0160   23.7089 C   0  0  0  0  0  0  0  0  0  0  0  0
   18.6202   17.9711   23.1518 H   0  0  0  0  0  0  0  0  0  0  0  0
   19.3143   17.8160   24.7597 H   0  0  0  0  0  0  0  0  0  0  0  0
   20.5156   16.8982   23.2107 C   0  0  0  0  0  0  0  0  0  0  0  0
   21.4550   16.9316   23.7799 H   0  0  0  0  0  0  0  0  0  0  0  0
   20.0553   15.9258   23.4341 H   0  0  0  0  0  0  0  0  0  0  0  0
   20.8207   16.9732   21.6956 C   0  0  0  0  0  0  0  0  0  0  0  0
   21.3530   17.9045   21.4611 H   0  0  0  0  0  0  0  0  0  0  0  0
   19.8798   16.9922   21.1279 H   0  0  0  0  0  0  0  0  0  0  0  0
   21.6762   15.7767   21.2272 C   0  0  0  0  0  0  0  0  0  0  0  0
   22.6377   15.7479   21.7563 H   0  0  0  0  0  0  0  0  0  0  0  0
   21.8855   15.8472   20.1519 H   0  0  0  0  0  0  0  0  0  0  0  0
   21.1583   14.8257   21.4073 H   0  0  0  0  0  0  0  0  0  0  0  0
   18.7950   22.8793   24.7548 C   0  0  0  0  0  0  0  0  0  0  0  0
   18.6390   22.6114   25.8021 H   0  0  0  0  0  0  0  0  0  0  0  0
   19.2028   23.8906   24.6896 H   0  0  0  0  0  0  0  0  0  0  0  0
   17.8471   22.8283   24.2145 H   0  0  0  0  0  0  0  0  0  0  0  0
  1  2  1  0  0  0  0
  1  3  1  0  0  0  0
  1  4  1  0  0  0  0
  4  5  1  0  0  0  0
  4  6  1  0  0  0  0
  4  7  1  0  0  0  0
  7  8  1  0  0  0  0
  7  9  1  0  0  0  0
  7 10  1  0  0  0  0
 10 11  1  0  0  0  0
 10 12  1  0  0  0  0
 10 13  1  0  0  0  0
 13 14  1  0  0  0  0
 13 15  1  0  0  0  0
 13 16  1  0  0  0  0
 16 17  1  0  0  0  0
 16 18  1  0  0  0  0
 16 19  1  0  0  0  0
 19 20  1  0  0  0  0
 19 21  1  0  0  0  0
 19 22  1  0  0  0  0
  1 23  1  0  0  0  0
 23 24  1  0  0  0  0
 23 25  1  0  0  0  0
 23 26  1  0  0  0  0
M  END
> <VConfSearch Rank>
465

> <Conf_Id>
35

> <Delta U+W>
0.670

> <U+W>
22.512

> <U>
71.348

> <W>
-48.837

> <W(PB)>
-51.150

> <W(SA)>
2.313

> <Valence>
2.262

> <Coulomb>
68.807

> <VdW>
0.280

> <VdW6>
-5.915

> <VdW12>
6.195

> <Bond>
0.164

> <Angle>
0.622

> <Pdih>
1.475

> <Idih>
0.000

> <Tether>
0.000

$$$$
VeraChem MOL file


 26 25  0  0  0  0  0  0  0  0999 V2000     
   19.3689   18.3169   26.0958 N   0  3  0  0  0  0  0  0  0  0  0  0
   19.3942   19.2835   26.4562 H   0  0  0  0  0  0  0  0  0  0  0  0
   20.3373   17.9693   26.1738 H   0  0  0  0  0  0  0  0  0  0  0  0
   18.9257   18.3106   24.6465 C   0  0  0  0  0  0  0  0  0  0  0  0
   17.9022   18.6919   24.6074 H   0  0  0  0  0  0  0  0  0  0  0  0
   18.9202   17.2734   24.3020 H   0  0  0  0  0  0  0  0  0  0  0  0
   19.8287   19.1559   23.7299 C   0  0  0  0  0  0  0  0  0  0  0  0
   19.8440   20.1934   24.0894 H   0  0  0  0  0  0  0  0  0  0  0  0
   20.8560   18.7757   23.7921 H   0  0  0  0  0  0  0  0  0  0  0  0
   19.3344   19.1196   22.2644 C   0  0  0  0  0  0  0  0  0  0  0  0
   18.2792   19.4255   22.2365 H   0  0  0  0  0  0  0  0  0  0  0  0
   19.3655   18.0876   21.8882 H   0  0  0  0  0  0  0  0  0  0  0  0
   20.1382   20.0425   21.3153 C   0  0  0  0  0  0  0  0  0  0  0  0
   19.6476   20.0424   20.3321 H   0  0  0  0  0  0  0  0  0  0  0  0
   20.0924   21.0775   21.6815 H   0  0  0  0  0  0  0  0  0  0  0  0
   21.6152   19.6162   21.1396 C   0  0  0  0  0  0  0  0  0  0  0  0
   21.6630   18.5648   20.8231 H   0  0  0  0  0  0  0  0  0  0  0  0
   22.1468   19.6849   22.0979 H   0  0  0  0  0  0  0  0  0  0  0  0
   22.3421   20.4963   20.1004 C   0  0  0  0  0  0  0  0  0  0  0  0
   21.8634   20.4221   19.1152 H   0  0  0  0  0  0  0  0  0  0  0  0
   23.3882   20.1825   19.9904 H   0  0  0  0  0  0  0  0  0  0  0  0
   22.3371   21.5513   20.4042 H   0  0  0  0  0  0  0  0  0  0  0  0
   18.4256   17.4608   26.9297 C   0  0  0  0  0  0  0  0  0  0  0  0
   18.4408   16.4365   26.5509 H   0  0  0  0  0  0  0  0  0  0  0  0
   18.7558   17.4740   27.9708 H   0  0  0  0  0  0  0  0  0  0  0  0
   17.4142   17.8669   26.8583 H   0  0  0  0  0  0  0  0  0  0  0  0
  1  2  1  0  0  0  0
  1  3  1  0  0  0  0
  1  4  1  0  0  0  0
  4  5  1  0  0  0  0
  4  6  1  0  0  0  0
  4  7  1  0  0  0  0
  7  8  1  0  0  0  0
  7  9  1  0  0  0  0
  7 10  1  0  0  0  0
 10 11  1  0  0  0  0
 10 12  1  0  0  0  0
 10 13  1  0  0  0  0
 13 14  1  0  0  0  0
 13 15  1  0  0  0  0
 13 16  1  0  0  0  0
 16 17  1  0  0  0  0
 16 18  1  0  0  0  0
 16 19  1  0  0  0  0
 19 20  1  0  0  0  0
 19 21  1  0  0  0  0
 19 22  1  0  0  0  0
  1 23  1  0  0  0  0
 23 24  1  0  0  0  0
 23 25  1  0  0  0  0
 23 26  1  0  0  0  0
M  END
> <VConfSearch Rank>
466

> <Conf_Id>
36

> <Delta U+W>
0.662

> <U+W>
22.504

> <U>
71.348

> <W>
-48.844

> <W(PB)>
-51.157

> <W(SA)>
2.313

> <Valence>
2.262

> <Coulomb>
68.807

> <VdW>
0.280

> <VdW6>
-5.916

> <VdW12>
6.195

> <Bond>
0.164

> <Angle>
0.622

> <Pdih>
1.475

> <Idih>
0.000

> <Tether>
0.000

$$$$
VeraChem MOL file


 26 25  0  0  0  0  0  0  0  0999 V2000     
   18.8800   18.2087   20.6877 N   0  3  0  0  0  0  0  0  0  0  0  0
   18.7810   17.2125   20.9381 H   0  0  0  0  0  0  0  0  0  0  0  0
   19.4812   18.2224   19.8491 H   0  0  0  0  0  0  0  0  0  0  0  0
   19.5425   18.9690   21.8188 C   0  0  0  0  0  0  0  0  0  0  0  0
   18.8770   18.9246   22.6840 H   0  0  0  0  0  0  0  0  0  0  0  0
   19.6381   20.0131   21.5102 H   0  0  0  0  0  0  0  0  0  0  0  0
   20.9283   18.4116   22.1973 C   0  0  0  0  0  0  0  0  0  0  0  0
   20.8325   17.3620   22.5057 H   0  0  0  0  0  0  0  0  0  0  0  0
   21.5737   18.4207   21.3089 H   0  0  0  0  0  0  0  0  0  0  0  0
   21.6120   19.2237   23.3226 C   0  0  0  0  0  0  0  0  0  0  0  0
   21.7314   20.2675   23.0004 H   0  0  0  0  0  0  0  0  0  0  0  0
   22.6258   18.8285   23.4760 H   0  0  0  0  0  0  0  0  0  0  0  0
   20.8391   19.1759   24.6629 C   0  0  0  0  0  0  0  0  0  0  0  0
   19.8399   19.6137   24.5362 H   0  0  0  0  0  0  0  0  0  0  0  0
   20.6923   18.1297   24.9651 H   0  0  0  0  0  0  0  0  0  0  0  0
   21.5853   19.9343   25.7832 C   0  0  0  0  0  0  0  0  0  0  0  0
   21.7357   20.9816   25.4858 H   0  0  0  0  0  0  0  0  0  0  0  0
   22.5844   19.4988   25.9250 H   0  0  0  0  0  0  0  0  0  0  0  0
   20.8128   19.8874   27.1189 C   0  0  0  0  0  0  0  0  0  0  0  0
   19.8214   20.3480   27.0183 H   0  0  0  0  0  0  0  0  0  0  0  0
   21.3584   20.4304   27.9015 H   0  0  0  0  0  0  0  0  0  0  0  0
   20.6761   18.8529   27.4599 H   0  0  0  0  0  0  0  0  0  0  0  0
   17.5199   18.8196   20.3797 C   0  0  0  0  0  0  0  0  0  0  0  0
   17.6532   19.8631   20.0857 H   0  0  0  0  0  0  0  0  0  0  0  0
   17.0538   18.2631   19.5636 H   0  0  0  0  0  0  0  0  0  0  0  0
   16.8909   18.7636   21.2709 H   0  0  0  0  0  0  0  0  0  0  0  0
  1  2  1  0  0  0  0
  1  3  1  0  0  0  0
  1  4  1  0  0  0  0
  4  5  1  0  0  0  0
  4  6  1  0  0  0  0
  4  7  1  0  0  0  0
  7  8  1  0  0  0  0
  7  9  1  0  0  0  0
  7 10  1  0  0  0  0
 10 11  1  0  0  0  0
 10 12  1  0  0  0  0
 10 13  1  0  0  0  0
 13 14  1  0  0  0  0
 13 15  1  0  0  0  0
 13 16  1  0  0  0  0
 16 17  1  0  0  0  0
 16 18  1  0  0  0  0
 16 19  1  0  0  0  0
 19 20  1  0  0  0  0
 19 21  1  0  0  0  0
 19 22  1  0  0  0  0
  1 23  1  0  0  0  0
 23 24  1  0  0  0  0
 23 25  1  0  0  0  0
 23 26  1  0  0  0  0
M  END
> <VConfSearch Rank>
467

> <Conf_Id>
46

> <Delta U+W>
0.496

> <U+W>
22.338

> <U>
71.138

> <W>
-48.799

> <W(PB)>
-51.136

> <W(SA)>
2.337

> <Valence>
2.016

> <Coulomb>
68.932

> <VdW>
0.190

> <VdW6>
-5.902

> <VdW12>
6.092

> <Bond>
0.149

> <Angle>
0.477

> <Pdih>
1.390

> <Idih>
0.000

> <Tether>
0.000

$$$$
VeraChem MOL file


 26 25  0  0  0  0  0  0  0  0999 V2000     
   21.1686   17.5022   21.0055 N   0  3  0  0  0  0  0  0  0  0  0  0
   20.5346   17.2291   20.2384 H   0  0  0  0  0  0  0  0  0  0  0  0
   21.3419   16.6365   21.5396 H   0  0  0  0  0  0  0  0  0  0  0  0
   20.5040   18.5382   21.8895 C   0  0  0  0  0  0  0  0  0  0  0  0
   20.3287   19.4319   21.2854 H   0  0  0  0  0  0  0  0  0  0  0  0
   21.2052   18.7935   22.6875 H   0  0  0  0  0  0  0  0  0  0  0  0
   19.1736   18.0553   22.4988 C   0  0  0  0  0  0  0  0  0  0  0  0
   18.4939   17.7604   21.6883 H   0  0  0  0  0  0  0  0  0  0  0  0
   19.3495   17.1563   23.1044 H   0  0  0  0  0  0  0  0  0  0  0  0
   18.4845   19.1377   23.3630 C   0  0  0  0  0  0  0  0  0  0  0  0
   17.5053   18.7587   23.6872 H   0  0  0  0  0  0  0  0  0  0  0  0
   18.2849   20.0258   22.7473 H   0  0  0  0  0  0  0  0  0  0  0  0
   19.3120   19.5402   24.6077 C   0  0  0  0  0  0  0  0  0  0  0  0
   19.5381   18.6450   25.2035 H   0  0  0  0  0  0  0  0  0  0  0  0
   20.2749   19.9670   24.2967 H   0  0  0  0  0  0  0  0  0  0  0  0
   18.5638   20.5669   25.4869 C   0  0  0  0  0  0  0  0  0  0  0  0
   17.6014   20.1469   25.8115 H   0  0  0  0  0  0  0  0  0  0  0  0
   18.3342   21.4644   24.8955 H   0  0  0  0  0  0  0  0  0  0  0  0
   19.3906   20.9688   26.7270 C   0  0  0  0  0  0  0  0  0  0  0  0
   19.6075   20.0962   27.3568 H   0  0  0  0  0  0  0  0  0  0  0  0
   18.8429   21.6975   27.3386 H   0  0  0  0  0  0  0  0  0  0  0  0
   20.3454   21.4249   26.4344 H   0  0  0  0  0  0  0  0  0  0  0  0
   22.4728   18.0564   20.4487 C   0  0  0  0  0  0  0  0  0  0  0  0
   22.9409   17.3008   19.8139 H   0  0  0  0  0  0  0  0  0  0  0  0
   22.2604   18.9520   19.8607 H   0  0  0  0  0  0  0  0  0  0  0  0
   23.1393   18.3067   21.2770 H   0  0  0  0  0  0  0  0  0  0  0  0
  1  2  1  0  0  0  0
  1  3  1  0  0  0  0
  1  4  1  0  0  0  0
  4  5  1  0  0  0  0
  4  6  1  0  0  0  0
  4  7  1  0  0  0  0
  7  8  1  0  0  0  0
  7  9  1  0  0  0  0
  7 10  1  0  0  0  0
 10 11  1  0  0  0  0
 10 12  1  0  0  0  0
 10 13  1  0  0  0  0
 13 14  1  0  0  0  0
 13 15  1  0  0  0  0
 13 16  1  0  0  0  0
 16 17  1  0  0  0  0
 16 18  1  0  0  0  0
 16 19  1  0  0  0  0
 19 20  1  0  0  0  0
 19 21  1  0  0  0  0
 19 22  1  0  0  0  0
  1 23  1  0  0  0  0
 23 24  1  0  0  0  0
 23 25  1  0  0  0  0
 23 26  1  0  0  0  0
M  END
> <VConfSearch Rank>
468

> <Conf_Id>
45

> <Delta U+W>
0.471

> <U+W>
22.313

> <U>
71.138

> <W>
-48.825

> <W(PB)>
-51.169

> <W(SA)>
2.344

> <Valence>
2.016

> <Coulomb>
68.932

> <VdW>
0.190

> <VdW6>
-5.902

> <VdW12>
6.092

> <Bond>
0.149

> <Angle>
0.477

> <Pdih>
1.390

> <Idih>
0.000

> <Tether>
0.000

$$$$
VeraChem MOL file


 26 25  0  0  0  0  0  0  0  0999 V2000     
   19.8503   20.4294   21.0703 N   0  3  0  0  0  0  0  0  0  0  0  0
   19.9492   21.1042   21.8436 H   0  0  0  0  0  0  0  0  0  0  0  0
   18.8593   20.1424   21.0784 H   0  0  0  0  0  0  0  0  0  0  0  0
   20.7436   19.2277   21.3107 C   0  0  0  0  0  0  0  0  0  0  0  0
   21.7809   19.5719   21.3043 H   0  0  0  0  0  0  0  0  0  0  0  0
   20.6066   18.5415   20.4711 H   0  0  0  0  0  0  0  0  0  0  0  0
   20.4512   18.4862   22.6299 C   0  0  0  0  0  0  0  0  0  0  0  0
   19.4088   18.1436   22.6254 H   0  0  0  0  0  0  0  0  0  0  0  0
   21.0786   17.5859   22.6682 H   0  0  0  0  0  0  0  0  0  0  0  0
   20.7305   19.3604   23.8783 C   0  0  0  0  0  0  0  0  0  0  0  0
   20.0461   20.2189   23.8993 H   0  0  0  0  0  0  0  0  0  0  0  0
   21.7454   19.7752   23.8033 H   0  0  0  0  0  0  0  0  0  0  0  0
   20.6156   18.5838   25.2132 C   0  0  0  0  0  0  0  0  0  0  0  0
   21.3158   17.7370   25.2086 H   0  0  0  0  0  0  0  0  0  0  0  0
   20.9381   19.2448   26.0296 H   0  0  0  0  0  0  0  0  0  0  0  0
   19.1850   18.0762   25.5127 C   0  0  0  0  0  0  0  0  0  0  0  0
   18.8708   17.3537   24.7478 H   0  0  0  0  0  0  0  0  0  0  0  0
   18.4765   18.9151   25.4688 H   0  0  0  0  0  0  0  0  0  0  0  0
   19.0976   17.4056   26.9003 C   0  0  0  0  0  0  0  0  0  0  0  0
   19.7739   16.5432   26.9652 H   0  0  0  0  0  0  0  0  0  0  0  0
   18.0778   17.0492   27.0952 H   0  0  0  0  0  0  0  0  0  0  0  0
   19.3655   18.1108   27.6979 H   0  0  0  0  0  0  0  0  0  0  0  0
   20.2070   21.0833   19.7426 C   0  0  0  0  0  0  0  0  0  0  0  0
   20.0647   20.3600   18.9366 H   0  0  0  0  0  0  0  0  0  0  0  0
   19.5573   21.9466   19.5824 H   0  0  0  0  0  0  0  0  0  0  0  0
   21.2500   21.4064   19.7701 H   0  0  0  0  0  0  0  0  0  0  0  0
  1  2  1  0  0  0  0
  1  3  1  0  0  0  0
  1  4  1  0  0  0  0
  4  5  1  0  0  0  0
  4  6  1  0  0  0  0
  4  7  1  0  0  0  0
  7  8  1  0  0  0  0
  7  9  1  0  0  0  0
  7 10  1  0  0  0  0
 10 11  1  0  0  0  0
 10 12  1  0  0  0  0
 10 13  1  0  0  0  0
 13 14  1  0  0  0  0
 13 15  1  0  0  0  0
 13 16  1  0  0  0  0
 16 17  1  0  0  0  0
 16 18  1  0  0  0  0
 16 19  1  0  0  0  0
 19 20  1  0  0  0  0
 19 21  1  0  0  0  0
 19 22  1  0  0  0  0
  1 23  1  0  0  0  0
 23 24  1  0  0  0  0
 23 25  1  0  0  0  0
 23 26  1  0  0  0  0
M  END
> <VConfSearch Rank>
469

> <Conf_Id>
143

> <Delta U+W>
0.915

> <U+W>
22.757

> <U>
71.994

> <W>
-49.237

> <W(PB)>
-51.537

> <W(SA)>
2.300

> <Valence>
2.376

> <Coulomb>
69.315

> <VdW>
0.303

> <VdW6>
-6.508

> <VdW12>
6.810

> <Bond>
0.182

> <Angle>
0.660

> <Pdih>
1.534

> <Idih>
0.000

> <Tether>
0.000

$$$$
VeraChem MOL file


 26 25  0  0  0  0  0  0  0  0999 V2000     
   19.7741   16.6442   24.3036 N   0  3  0  0  0  0  0  0  0  0  0  0
   20.3281   16.4368   23.4591 H   0  0  0  0  0  0  0  0  0  0  0  0
   18.7872   16.5698   24.0118 H   0  0  0  0  0  0  0  0  0  0  0  0
   20.0699   18.0501   24.7896 C   0  0  0  0  0  0  0  0  0  0  0  0
   21.1228   18.0933   25.0795 H   0  0  0  0  0  0  0  0  0  0  0  0
   19.4632   18.2227   25.6822 H   0  0  0  0  0  0  0  0  0  0  0  0
   19.7718   19.1494   23.7508 C   0  0  0  0  0  0  0  0  0  0  0  0
   18.7211   19.0849   23.4386 H   0  0  0  0  0  0  0  0  0  0  0  0
   19.9000   20.1201   24.2450 H   0  0  0  0  0  0  0  0  0  0  0  0
   20.7024   19.0740   22.5157 C   0  0  0  0  0  0  0  0  0  0  0  0
   20.6543   18.0667   22.0818 H   0  0  0  0  0  0  0  0  0  0  0  0
   21.7437   19.2191   22.8355 H   0  0  0  0  0  0  0  0  0  0  0  0
   20.3621   20.0913   21.3956 C   0  0  0  0  0  0  0  0  0  0  0  0
   21.0575   19.9112   20.5640 H   0  0  0  0  0  0  0  0  0  0  0  0
   19.3608   19.8875   20.9916 H   0  0  0  0  0  0  0  0  0  0  0  0
   20.4808   21.5814   21.8083 C   0  0  0  0  0  0  0  0  0  0  0  0
   20.8595   22.1532   20.9494 H   0  0  0  0  0  0  0  0  0  0  0  0
   21.2306   21.6998   22.6030 H   0  0  0  0  0  0  0  0  0  0  0  0
   19.1344   22.2082   22.2406 C   0  0  0  0  0  0  0  0  0  0  0  0
   18.7025   21.7013   23.1103 H   0  0  0  0  0  0  0  0  0  0  0  0
   18.4012   22.1620   21.4249 H   0  0  0  0  0  0  0  0  0  0  0  0
   19.2703   23.2648   22.5054 H   0  0  0  0  0  0  0  0  0  0  0  0
   20.0836   15.6393   25.4044 C   0  0  0  0  0  0  0  0  0  0  0  0
   19.4629   15.8590   26.2759 H   0  0  0  0  0  0  0  0  0  0  0  0
   19.8667   14.6321   25.0416 H   0  0  0  0  0  0  0  0  0  0  0  0
   21.1395   15.7151   25.6734 H   0  0  0  0  0  0  0  0  0  0  0  0
  1  2  1  0  0  0  0
  1  3  1  0  0  0  0
  1  4  1  0  0  0  0
  4  5  1  0  0  0  0
  4  6  1  0  0  0  0
  4  7  1  0  0  0  0
  7  8  1  0  0  0  0
  7  9  1  0  0  0  0
  7 10  1  0  0  0  0
 10 11  1  0  0  0  0
 10 12  1  0  0  0  0
 10 13  1  0  0  0  0
 13 14  1  0  0  0  0
 13 15  1  0  0  0  0
 13 16  1  0  0  0  0
 16 17  1  0  0  0  0
 16 18  1  0  0  0  0
 16 19  1  0  0  0  0
 19 20  1  0  0  0  0
 19 21  1  0  0  0  0
 19 22  1  0  0  0  0
  1 23  1  0  0  0  0
 23 24  1  0  0  0  0
 23 25  1  0  0  0  0
 23 26  1  0  0  0  0
M  END
> <VConfSearch Rank>
470

> <Conf_Id>
76

> <Delta U+W>
3.468

> <U+W>
25.310

> <U>
74.594

> <W>
-49.283

> <W(PB)>
-51.537

> <W(SA)>
2.253

> <Valence>
4.886

> <Coulomb>
69.332

> <VdW>
0.376

> <VdW6>
-7.329

> <VdW12>
7.705

> <Bond>
0.232

> <Angle>
1.251

> <Pdih>
3.403

> <Idih>
0.000

> <Tether>
0.000

$$$$
VeraChem MOL file


 26 25  0  0  0  0  0  0  0  0999 V2000     
   22.2024   18.0706   21.8129 N   0  3  0  0  0  0  0  0  0  0  0  0
   22.4868   17.5971   22.6844 H   0  0  0  0  0  0  0  0  0  0  0  0
   22.8179   18.8952   21.7348 H   0  0  0  0  0  0  0  0  0  0  0  0
   20.7536   18.5062   21.9027 C   0  0  0  0  0  0  0  0  0  0  0  0
   20.1382   17.6073   21.9913 H   0  0  0  0  0  0  0  0  0  0  0  0
   20.4961   19.0089   20.9671 H   0  0  0  0  0  0  0  0  0  0  0  0
   20.4722   19.4451   23.0897 C   0  0  0  0  0  0  0  0  0  0  0  0
   20.7569   18.9431   24.0211 H   0  0  0  0  0  0  0  0  0  0  0  0
   21.1056   20.3379   23.0036 H   0  0  0  0  0  0  0  0  0  0  0  0
   18.9843   19.8693   23.1314 C   0  0  0  0  0  0  0  0  0  0  0  0
   18.3340   18.9840   23.1586 H   0  0  0  0  0  0  0  0  0  0  0  0
   18.7511   20.3877   22.1909 H   0  0  0  0  0  0  0  0  0  0  0  0
   18.6434   20.8169   24.3114 C   0  0  0  0  0  0  0  0  0  0  0  0
   19.5181   21.4266   24.5765 H   0  0  0  0  0  0  0  0  0  0  0  0
   17.8802   21.5291   23.9683 H   0  0  0  0  0  0  0  0  0  0  0  0
   18.0853   20.1089   25.5727 C   0  0  0  0  0  0  0  0  0  0  0  0
   17.1515   19.5875   25.3198 H   0  0  0  0  0  0  0  0  0  0  0  0
   17.8137   20.8763   26.3111 H   0  0  0  0  0  0  0  0  0  0  0  0
   19.0651   19.1135   26.2317 C   0  0  0  0  0  0  0  0  0  0  0  0
   20.0339   19.5871   26.4365 H   0  0  0  0  0  0  0  0  0  0  0  0
   19.2311   18.2363   25.5944 H   0  0  0  0  0  0  0  0  0  0  0  0
   18.6601   18.7520   27.1858 H   0  0  0  0  0  0  0  0  0  0  0  0
   22.3926   17.1475   20.6173 C   0  0  0  0  0  0  0  0  0  0  0  0
   21.7568   16.2676   20.7382 H   0  0  0  0  0  0  0  0  0  0  0  0
   22.1172   17.6805   19.7046 H   0  0  0  0  0  0  0  0  0  0  0  0
   23.4398   16.8414   20.5640 H   0  0  0  0  0  0  0  0  0  0  0  0
  1  2  1  0  0  0  0
  1  3  1  0  0  0  0
  1  4  1  0  0  0  0
  4  5  1  0  0  0  0
  4  6  1  0  0  0  0
  4  7  1  0  0  0  0
  7  8  1  0  0  0  0
  7  9  1  0  0  0  0
  7 10  1  0  0  0  0
 10 11  1  0  0  0  0
 10 12  1  0  0  0  0
 10 13  1  0  0  0  0
 13 14  1  0  0  0  0
 13 15  1  0  0  0  0
 13 16  1  0  0  0  0
 16 17  1  0  0  0  0
 16 18  1  0  0  0  0
 16 19  1  0  0  0  0
 19 20  1  0  0  0  0
 19 21  1  0  0  0  0
 19 22  1  0  0  0  0
  1 23  1  0  0  0  0
 23 24  1  0  0  0  0
 23 25  1  0  0  0  0
 23 26  1  0  0  0  0
M  END
> <VConfSearch Rank>
471

> <Conf_Id>
123

> <Delta U+W>
3.101

> <U+W>
24.943

> <U>
74.070

> <W>
-49.127

> <W(PB)>
-51.421

> <W(SA)>
2.295

> <Valence>
4.690

> <Coulomb>
69.115

> <VdW>
0.266

> <VdW6>
-6.809

> <VdW12>
7.075

> <Bond>
0.212

> <Angle>
1.133

> <Pdih>
3.345

> <Idih>
0.000

> <Tether>
0.000

$$$$
VeraChem MOL file


 26 25  0  0  0  0  0  0  0  0999 V2000     
   17.8116   20.3635   23.6204 N   0  3  0  0  0  0  0  0  0  0  0  0
   17.8442   20.6739   24.6038 H   0  0  0  0  0  0  0  0  0  0  0  0
   17.5528   19.3660   23.6537 H   0  0  0  0  0  0  0  0  0  0  0  0
   19.1749   20.5266   22.9763 C   0  0  0  0  0  0  0  0  0  0  0  0
   19.4065   21.5947   22.9618 H   0  0  0  0  0  0  0  0  0  0  0  0
   19.1034   20.1790   21.9427 H   0  0  0  0  0  0  0  0  0  0  0  0
   20.3051   19.7690   23.7008 C   0  0  0  0  0  0  0  0  0  0  0  0
   21.2558   20.0392   23.2278 H   0  0  0  0  0  0  0  0  0  0  0  0
   20.3693   20.1172   24.7402 H   0  0  0  0  0  0  0  0  0  0  0  0
   20.1083   18.2317   23.6709 C   0  0  0  0  0  0  0  0  0  0  0  0
   19.9464   17.8866   22.6403 H   0  0  0  0  0  0  0  0  0  0  0  0
   19.1908   17.9860   24.2220 H   0  0  0  0  0  0  0  0  0  0  0  0
   21.2824   17.4486   24.3148 C   0  0  0  0  0  0  0  0  0  0  0  0
   21.7586   18.0517   25.1002 H   0  0  0  0  0  0  0  0  0  0  0  0
   20.8674   16.5702   24.8282 H   0  0  0  0  0  0  0  0  0  0  0  0
   22.3499   16.9402   23.3120 C   0  0  0  0  0  0  0  0  0  0  0  0
   21.8816   16.2552   22.5914 H   0  0  0  0  0  0  0  0  0  0  0  0
   23.0888   16.3418   23.8632 H   0  0  0  0  0  0  0  0  0  0  0  0
   23.0906   18.0593   22.5476 C   0  0  0  0  0  0  0  0  0  0  0  0
   23.5218   18.7939   23.2398 H   0  0  0  0  0  0  0  0  0  0  0  0
   22.4187   18.5819   21.8556 H   0  0  0  0  0  0  0  0  0  0  0  0
   23.9107   17.6384   21.9517 H   0  0  0  0  0  0  0  0  0  0  0  0
   16.7723   21.1587   22.8425 C   0  0  0  0  0  0  0  0  0  0  0  0
   16.7341   20.7910   21.8148 H   0  0  0  0  0  0  0  0  0  0  0  0
   15.7962   21.0323   23.3162 H   0  0  0  0  0  0  0  0  0  0  0  0
   17.0507   22.2148   22.8476 H   0  0  0  0  0  0  0  0  0  0  0  0
  1  2  1  0  0  0  0
  1  3  1  0  0  0  0
  1  4  1  0  0  0  0
  4  5  1  0  0  0  0
  4  6  1  0  0  0  0
  4  7  1  0  0  0  0
  7  8  1  0  0  0  0
  7  9  1  0  0  0  0
  7 10  1  0  0  0  0
 10 11  1  0  0  0  0
 10 12  1  0  0  0  0
 10 13  1  0  0  0  0
 13 14  1  0  0  0  0
 13 15  1  0  0  0  0
 13 16  1  0  0  0  0
 16 17  1  0  0  0  0
 16 18  1  0  0  0  0
 16 19  1  0  0  0  0
 19 20  1  0  0  0  0
 19 21  1  0  0  0  0
 19 22  1  0  0  0  0
  1 23  1  0  0  0  0
 23 24  1  0  0  0  0
 23 25  1  0  0  0  0
 23 26  1  0  0  0  0
M  END
> <VConfSearch Rank>
472

> <Conf_Id>
111

> <Delta U+W>
3.383

> <U+W>
25.225

> <U>
74.516

> <W>
-49.292

> <W(PB)>
-51.558

> <W(SA)>
2.266

> <Valence>
4.842

> <Coulomb>
69.333

> <VdW>
0.342

> <VdW6>
-7.369

> <VdW12>
7.711

> <Bond>
0.232

> <Angle>
1.153

> <Pdih>
3.457

> <Idih>
0.000

> <Tether>
0.000

$$$$
VeraChem MOL file


 26 25  0  0  0  0  0  0  0  0999 V2000     
   17.7434   18.8998   23.9644 N   0  3  0  0  0  0  0  0  0  0  0  0
   17.5885   18.3028   24.7915 H   0  0  0  0  0  0  0  0  0  0  0  0
   18.1926   18.2913   23.2636 H   0  0  0  0  0  0  0  0  0  0  0  0
   18.6652   20.0506   24.3174 C   0  0  0  0  0  0  0  0  0  0  0  0
   18.1585   20.6624   25.0681 H   0  0  0  0  0  0  0  0  0  0  0  0
   18.8021   20.6596   23.4207 H   0  0  0  0  0  0  0  0  0  0  0  0
   20.0388   19.6061   24.8616 C   0  0  0  0  0  0  0  0  0  0  0  0
   20.6157   20.5003   25.1324 H   0  0  0  0  0  0  0  0  0  0  0  0
   19.8902   19.0451   25.7938 H   0  0  0  0  0  0  0  0  0  0  0  0
   20.8655   18.7453   23.8729 C   0  0  0  0  0  0  0  0  0  0  0  0
   20.3374   17.8059   23.6618 H   0  0  0  0  0  0  0  0  0  0  0  0
   21.8025   18.4630   24.3701 H   0  0  0  0  0  0  0  0  0  0  0  0
   21.1840   19.4778   22.5443 C   0  0  0  0  0  0  0  0  0  0  0  0
   20.2480   19.7816   22.0575 H   0  0  0  0  0  0  0  0  0  0  0  0
   21.7369   20.4035   22.7553 H   0  0  0  0  0  0  0  0  0  0  0  0
   21.9875   18.6141   21.5418 C   0  0  0  0  0  0  0  0  0  0  0  0
   22.0685   19.1615   20.5922 H   0  0  0  0  0  0  0  0  0  0  0  0
   21.4337   17.6917   21.3175 H   0  0  0  0  0  0  0  0  0  0  0  0
   23.4099   18.2604   22.0332 C   0  0  0  0  0  0  0  0  0  0  0  0
   23.3827   17.6045   22.9119 H   0  0  0  0  0  0  0  0  0  0  0  0
   23.9736   19.1650   22.2957 H   0  0  0  0  0  0  0  0  0  0  0  0
   23.9676   17.7344   21.2475 H   0  0  0  0  0  0  0  0  0  0  0  0
   16.4209   19.4375   23.4363 C   0  0  0  0  0  0  0  0  0  0  0  0
   15.7677   18.5988   23.1853 H   0  0  0  0  0  0  0  0  0  0  0  0
   15.9508   20.0534   24.2061 H   0  0  0  0  0  0  0  0  0  0  0  0
   16.6083   20.0392   22.5442 H   0  0  0  0  0  0  0  0  0  0  0  0
  1  2  1  0  0  0  0
  1  3  1  0  0  0  0
  1  4  1  0  0  0  0
  4  5  1  0  0  0  0
  4  6  1  0  0  0  0
  4  7  1  0  0  0  0
  7  8  1  0  0  0  0
  7  9  1  0  0  0  0
  7 10  1  0  0  0  0
 10 11  1  0  0  0  0
 10 12  1  0  0  0  0
 10 13  1  0  0  0  0
 13 14  1  0  0  0  0
 13 15  1  0  0  0  0
 13 16  1  0  0  0  0
 16 17  1  0  0  0  0
 16 18  1  0  0  0  0
 16 19  1  0  0  0  0
 19 20  1  0  0  0  0
 19 21  1  0  0  0  0
 19 22  1  0  0  0  0
  1 23  1  0  0  0  0
 23 24  1  0  0  0  0
 23 25  1  0  0  0  0
 23 26  1  0  0  0  0
M  END
> <VConfSearch Rank>
473

> <Conf_Id>
126

> <Delta U+W>
1.519

> <U+W>
23.361

> <U>
72.579

> <W>
-49.218

> <W(PB)>
-51.496

> <W(SA)>
2.279

> <Valence>
2.678

> <Coulomb>
69.622

> <VdW>
0.279

> <VdW6>
-7.328

> <VdW12>
7.608

> <Bond>
0.212

> <Angle>
0.911

> <Pdih>
1.555

> <Idih>
0.000

> <Tether>
0.000

$$$$
VeraChem MOL file


 26 25  0  0  0  0  0  0  0  0999 V2000     
   17.9778   20.3060   23.3900 N   0  3  0  0  0  0  0  0  0  0  0  0
   18.6251   20.3575   22.5891 H   0  0  0  0  0  0  0  0  0  0  0  0
   18.0234   21.2318   23.8433 H   0  0  0  0  0  0  0  0  0  0  0  0
   18.4337   19.2296   24.3555 C   0  0  0  0  0  0  0  0  0  0  0  0
   18.3684   18.2674   23.8424 H   0  0  0  0  0  0  0  0  0  0  0  0
   17.7303   19.2158   25.1920 H   0  0  0  0  0  0  0  0  0  0  0  0
   19.8645   19.4388   24.8935 C   0  0  0  0  0  0  0  0  0  0  0  0
   19.9013   20.3808   25.4566 H   0  0  0  0  0  0  0  0  0  0  0  0
   20.0884   18.6427   25.6159 H   0  0  0  0  0  0  0  0  0  0  0  0
   20.9594   19.4554   23.7967 C   0  0  0  0  0  0  0  0  0  0  0  0
   21.9256   19.6386   24.2844 H   0  0  0  0  0  0  0  0  0  0  0  0
   20.7958   20.3020   23.1168 H   0  0  0  0  0  0  0  0  0  0  0  0
   21.0304   18.1368   22.9848 C   0  0  0  0  0  0  0  0  0  0  0  0
   21.2223   17.2942   23.6633 H   0  0  0  0  0  0  0  0  0  0  0  0
   20.0574   17.9400   22.5158 H   0  0  0  0  0  0  0  0  0  0  0  0
   22.1047   18.1566   21.8702 C   0  0  0  0  0  0  0  0  0  0  0  0
   21.9110   18.9904   21.1811 H   0  0  0  0  0  0  0  0  0  0  0  0
   22.0099   17.2380   21.2742 H   0  0  0  0  0  0  0  0  0  0  0  0
   23.5508   18.2515   22.4083 C   0  0  0  0  0  0  0  0  0  0  0  0
   23.7592   17.4471   23.1256 H   0  0  0  0  0  0  0  0  0  0  0  0
   23.7353   19.2120   22.9048 H   0  0  0  0  0  0  0  0  0  0  0  0
   24.2727   18.1625   21.5862 H   0  0  0  0  0  0  0  0  0  0  0  0
   16.5619   20.0111   22.9150 C   0  0  0  0  0  0  0  0  0  0  0  0
   16.5465   19.0419   22.4116 H   0  0  0  0  0  0  0  0  0  0  0  0
   15.8911   19.9914   23.7766 H   0  0  0  0  0  0  0  0  0  0  0  0
   16.2470   20.7929   22.2201 H   0  0  0  0  0  0  0  0  0  0  0  0
  1  2  1  0  0  0  0
  1  3  1  0  0  0  0
  1  4  1  0  0  0  0
  4  5  1  0  0  0  0
  4  6  1  0  0  0  0
  4  7  1  0  0  0  0
  7  8  1  0  0  0  0
  7  9  1  0  0  0  0
  7 10  1  0  0  0  0
 10 11  1  0  0  0  0
 10 12  1  0  0  0  0
 10 13  1  0  0  0  0
 13 14  1  0  0  0  0
 13 15  1  0  0  0  0
 13 16  1  0  0  0  0
 16 17  1  0  0  0  0
 16 18  1  0  0  0  0
 16 19  1  0  0  0  0
 19 20  1  0  0  0  0
 19 21  1  0  0  0  0
 19 22  1  0  0  0  0
  1 23  1  0  0  0  0
 23 24  1  0  0  0  0
 23 25  1  0  0  0  0
 23 26  1  0  0  0  0
M  END
> <VConfSearch Rank>
474

> <Conf_Id>
134

> <Delta U+W>
1.464

> <U+W>
23.306

> <U>
72.579

> <W>
-49.273

> <W(PB)>
-51.540

> <W(SA)>
2.267

> <Valence>
2.677

> <Coulomb>
69.622

> <VdW>
0.280

> <VdW6>
-7.328

> <VdW12>
7.608

> <Bond>
0.212

> <Angle>
0.911

> <Pdih>
1.555

> <Idih>
0.000

> <Tether>
0.000

$$$$
VeraChem MOL file


 26 25  0  0  0  0  0  0  0  0999 V2000     
   18.6099   21.1511   24.4554 N   0  3  0  0  0  0  0  0  0  0  0  0
   19.3846   21.7662   24.1617 H   0  0  0  0  0  0  0  0  0  0  0  0
   18.7616   20.9799   25.4617 H   0  0  0  0  0  0  0  0  0  0  0  0
   18.6601   19.8444   23.6894 C   0  0  0  0  0  0  0  0  0  0  0  0
   18.5037   20.0697   22.6314 H   0  0  0  0  0  0  0  0  0  0  0  0
   17.8314   19.2213   24.0349 H   0  0  0  0  0  0  0  0  0  0  0  0
   19.9877   19.0855   23.8663 C   0  0  0  0  0  0  0  0  0  0  0  0
   20.8133   19.7272   23.5336 H   0  0  0  0  0  0  0  0  0  0  0  0
   20.1489   18.8749   24.9319 H   0  0  0  0  0  0  0  0  0  0  0  0
   19.9898   17.7608   23.0677 C   0  0  0  0  0  0  0  0  0  0  0  0
   19.8678   17.9724   21.9969 H   0  0  0  0  0  0  0  0  0  0  0  0
   19.1120   17.1674   23.3591 H   0  0  0  0  0  0  0  0  0  0  0  0
   21.2591   16.8996   23.2963 C   0  0  0  0  0  0  0  0  0  0  0  0
   21.3038   16.6028   24.3533 H   0  0  0  0  0  0  0  0  0  0  0  0
   21.1582   15.9655   22.7267 H   0  0  0  0  0  0  0  0  0  0  0  0
   22.5987   17.5783   22.9114 C   0  0  0  0  0  0  0  0  0  0  0  0
   23.4181   16.8755   23.1176 H   0  0  0  0  0  0  0  0  0  0  0  0
   22.7824   18.4490   23.5550 H   0  0  0  0  0  0  0  0  0  0  0  0
   22.6694   18.0023   21.4268 C   0  0  0  0  0  0  0  0  0  0  0  0
   22.4700   17.1509   20.7632 H   0  0  0  0  0  0  0  0  0  0  0  0
   23.6673   18.3901   21.1847 H   0  0  0  0  0  0  0  0  0  0  0  0
   21.9440   18.7933   21.1992 H   0  0  0  0  0  0  0  0  0  0  0  0
   17.2691   21.8348   24.2263 C   0  0  0  0  0  0  0  0  0  0  0  0
   16.4677   21.1796   24.5747 H   0  0  0  0  0  0  0  0  0  0  0  0
   17.2460   22.7741   24.7834 H   0  0  0  0  0  0  0  0  0  0  0  0
   17.1458   22.0354   23.1597 H   0  0  0  0  0  0  0  0  0  0  0  0
  1  2  1  0  0  0  0
  1  3  1  0  0  0  0
  1  4  1  0  0  0  0
  4  5  1  0  0  0  0
  4  6  1  0  0  0  0
  4  7  1  0  0  0  0
  7  8  1  0  0  0  0
  7  9  1  0  0  0  0
  7 10  1  0  0  0  0
 10 11  1  0  0  0  0
 10 12  1  0  0  0  0
 10 13  1  0  0  0  0
 13 14  1  0  0  0  0
 13 15  1  0  0  0  0
 13 16  1  0  0  0  0
 16 17  1  0  0  0  0
 16 18  1  0  0  0  0
 16 19  1  0  0  0  0
 19 20  1  0  0  0  0
 19 21  1  0  0  0  0
 19 22  1  0  0  0  0
  1 23  1  0  0  0  0
 23 24  1  0  0  0  0
 23 25  1  0  0  0  0
 23 26  1  0  0  0  0
M  END
> <VConfSearch Rank>
475

> <Conf_Id>
30

> <Delta U+W>
0.910

> <U+W>
22.752

> <U>
71.870

> <W>
-49.118

> <W(PB)>
-51.409

> <W(SA)>
2.290

> <Valence>
2.682

> <Coulomb>
68.933

> <VdW>
0.255

> <VdW6>
-6.833

> <VdW12>
7.088

> <Bond>
0.205

> <Angle>
1.003

> <Pdih>
1.473

> <Idih>
0.000

> <Tether>
0.000

$$$$
VeraChem MOL file


 26 25  0  0  0  0  0  0  0  0999 V2000     
   17.5079   18.3350   24.4041 N   0  3  0  0  0  0  0  0  0  0  0  0
   17.3829   19.0638   25.1239 H   0  0  0  0  0  0  0  0  0  0  0  0
   18.0291   17.5758   24.8696 H   0  0  0  0  0  0  0  0  0  0  0  0
   18.3088   18.8822   23.2397 C   0  0  0  0  0  0  0  0  0  0  0  0
   17.7275   19.6863   22.7815 H   0  0  0  0  0  0  0  0  0  0  0  0
   18.4250   18.0802   22.5063 H   0  0  0  0  0  0  0  0  0  0  0  0
   19.6942   19.4135   23.6498 C   0  0  0  0  0  0  0  0  0  0  0  0
   19.5740   20.2080   24.3982 H   0  0  0  0  0  0  0  0  0  0  0  0
   20.2615   18.6031   24.1247 H   0  0  0  0  0  0  0  0  0  0  0  0
   20.4711   19.9609   22.4295 C   0  0  0  0  0  0  0  0  0  0  0  0
   19.8533   20.7152   21.9225 H   0  0  0  0  0  0  0  0  0  0  0  0
   20.6265   19.1575   21.6970 H   0  0  0  0  0  0  0  0  0  0  0  0
   21.8298   20.6111   22.7989 C   0  0  0  0  0  0  0  0  0  0  0  0
   22.2914   21.0064   21.8835 H   0  0  0  0  0  0  0  0  0  0  0  0
   21.6457   21.4827   23.4421 H   0  0  0  0  0  0  0  0  0  0  0  0
   22.8426   19.6741   23.5057 C   0  0  0  0  0  0  0  0  0  0  0  0
   22.4534   19.3630   24.4844 H   0  0  0  0  0  0  0  0  0  0  0  0
   23.7584   20.2443   23.7153 H   0  0  0  0  0  0  0  0  0  0  0  0
   23.2135   18.4273   22.6711 C   0  0  0  0  0  0  0  0  0  0  0  0
   22.3510   17.7630   22.5349 H   0  0  0  0  0  0  0  0  0  0  0  0
   23.9997   17.8486   23.1728 H   0  0  0  0  0  0  0  0  0  0  0  0
   23.5879   18.7131   21.6796 H   0  0  0  0  0  0  0  0  0  0  0  0
   16.1572   17.8324   23.9132 C   0  0  0  0  0  0  0  0  0  0  0  0
   15.5907   17.4414   24.7612 H   0  0  0  0  0  0  0  0  0  0  0  0
   15.6111   18.6599   23.4548 H   0  0  0  0  0  0  0  0  0  0  0  0
   16.3145   17.0403   23.1778 H   0  0  0  0  0  0  0  0  0  0  0  0
  1  2  1  0  0  0  0
  1  3  1  0  0  0  0
  1  4  1  0  0  0  0
  4  5  1  0  0  0  0
  4  6  1  0  0  0  0
  4  7  1  0  0  0  0
  7  8  1  0  0  0  0
  7  9  1  0  0  0  0
  7 10  1  0  0  0  0
 10 11  1  0  0  0  0
 10 12  1  0  0  0  0
 10 13  1  0  0  0  0
 13 14  1  0  0  0  0
 13 15  1  0  0  0  0
 13 16  1  0  0  0  0
 16 17  1  0  0  0  0
 16 18  1  0  0  0  0
 16 19  1  0  0  0  0
 19 20  1  0  0  0  0
 19 21  1  0  0  0  0
 19 22  1  0  0  0  0
  1 23  1  0  0  0  0
 23 24  1  0  0  0  0
 23 25  1  0  0  0  0
 23 26  1  0  0  0  0
M  END
> <VConfSearch Rank>
476

> <Conf_Id>
29

> <Delta U+W>
0.886

> <U+W>
22.729

> <U>
71.870

> <W>
-49.141

> <W(PB)>
-51.404

> <W(SA)>
2.262

> <Valence>
2.682

> <Coulomb>
68.933

> <VdW>
0.255

> <VdW6>
-6.833

> <VdW12>
7.088

> <Bond>
0.205

> <Angle>
1.003

> <Pdih>
1.473

> <Idih>
0.000

> <Tether>
0.000

$$$$
VeraChem MOL file


 26 25  0  0  0  0  0  0  0  0999 V2000     
   22.1236   19.3675   24.8252 N   0  3  0  0  0  0  0  0  0  0  0  0
   21.9443   19.5596   25.8231 H   0  0  0  0  0  0  0  0  0  0  0  0
   22.2182   20.2935   24.3799 H   0  0  0  0  0  0  0  0  0  0  0  0
   20.9570   18.6127   24.2206 C   0  0  0  0  0  0  0  0  0  0  0  0
   20.8834   17.6468   24.7264 H   0  0  0  0  0  0  0  0  0  0  0  0
   21.1859   18.4339   23.1672 H   0  0  0  0  0  0  0  0  0  0  0  0
   19.6173   19.3638   24.3404 C   0  0  0  0  0  0  0  0  0  0  0  0
   19.4142   19.5700   25.3996 H   0  0  0  0  0  0  0  0  0  0  0  0
   19.6949   20.3404   23.8457 H   0  0  0  0  0  0  0  0  0  0  0  0
   18.4296   18.5640   23.7499 C   0  0  0  0  0  0  0  0  0  0  0  0
   17.5056   19.1426   23.8828 H   0  0  0  0  0  0  0  0  0  0  0  0
   18.2913   17.6470   24.3393 H   0  0  0  0  0  0  0  0  0  0  0  0
   18.5865   18.1725   22.2555 C   0  0  0  0  0  0  0  0  0  0  0  0
   19.4133   17.4572   22.1505 H   0  0  0  0  0  0  0  0  0  0  0  0
   17.6854   17.6292   21.9391 H   0  0  0  0  0  0  0  0  0  0  0  0
   18.8223   19.3575   21.2845 C   0  0  0  0  0  0  0  0  0  0  0  0
   18.9295   18.9593   20.2658 H   0  0  0  0  0  0  0  0  0  0  0  0
   19.7747   19.8536   21.5145 H   0  0  0  0  0  0  0  0  0  0  0  0
   17.6772   20.3956   21.2946 C   0  0  0  0  0  0  0  0  0  0  0  0
   17.8499   21.1663   20.5323 H   0  0  0  0  0  0  0  0  0  0  0  0
   17.6012   20.9018   22.2649 H   0  0  0  0  0  0  0  0  0  0  0  0
   16.7118   19.9201   21.0784 H   0  0  0  0  0  0  0  0  0  0  0  0
   23.4041   18.5613   24.6582 C   0  0  0  0  0  0  0  0  0  0  0  0
   24.2363   19.1156   25.0980 H   0  0  0  0  0  0  0  0  0  0  0  0
   23.2921   17.6004   25.1652 H   0  0  0  0  0  0  0  0  0  0  0  0
   23.5903   18.3991   23.5943 H   0  0  0  0  0  0  0  0  0  0  0  0
  1  2  1  0  0  0  0
  1  3  1  0  0  0  0
  1  4  1  0  0  0  0
  4  5  1  0  0  0  0
  4  6  1  0  0  0  0
  4  7  1  0  0  0  0
  7  8  1  0  0  0  0
  7  9  1  0  0  0  0
  7 10  1  0  0  0  0
 10 11  1  0  0  0  0
 10 12  1  0  0  0  0
 10 13  1  0  0  0  0
 13 14  1  0  0  0  0
 13 15  1  0  0  0  0
 13 16  1  0  0  0  0
 16 17  1  0  0  0  0
 16 18  1  0  0  0  0
 16 19  1  0  0  0  0
 19 20  1  0  0  0  0
 19 21  1  0  0  0  0
 19 22  1  0  0  0  0
  1 23  1  0  0  0  0
 23 24  1  0  0  0  0
 23 25  1  0  0  0  0
 23 26  1  0  0  0  0
M  END
> <VConfSearch Rank>
477

> <Conf_Id>
82

> <Delta U+W>
1.026

> <U+W>
22.868

> <U>
72.455

> <W>
-49.586

> <W(PB)>
-51.821

> <W(SA)>
2.234

> <Valence>
2.908

> <Coulomb>
69.435

> <VdW>
0.112

> <VdW6>
-7.765

> <VdW12>
7.877

> <Bond>
0.233

> <Angle>
1.170

> <Pdih>
1.506

> <Idih>
0.000

> <Tether>
0.000

$$$$
VeraChem MOL file


 26 25  0  0  0  0  0  0  0  0999 V2000     
   22.5324   18.7245   24.2637 N   0  3  0  0  0  0  0  0  0  0  0  0
   22.5250   17.8423   23.7286 H   0  0  0  0  0  0  0  0  0  0  0  0
   22.5910   18.4440   25.2550 H   0  0  0  0  0  0  0  0  0  0  0  0
   21.2540   19.4988   24.0143 C   0  0  0  0  0  0  0  0  0  0  0  0
   21.2308   19.7720   22.9566 H   0  0  0  0  0  0  0  0  0  0  0  0
   21.2958   20.4162   24.6067 H   0  0  0  0  0  0  0  0  0  0  0  0
   19.9822   18.7073   24.3739 C   0  0  0  0  0  0  0  0  0  0  0  0
   19.9468   17.7785   23.7904 H   0  0  0  0  0  0  0  0  0  0  0  0
   20.0318   18.4070   25.4289 H   0  0  0  0  0  0  0  0  0  0  0  0
   18.6861   19.5246   24.1471 C   0  0  0  0  0  0  0  0  0  0  0  0
   18.6846   20.3845   24.8312 H   0  0  0  0  0  0  0  0  0  0  0  0
   17.8210   18.9141   24.4383 H   0  0  0  0  0  0  0  0  0  0  0  0
   18.4896   20.0454   22.6975 C   0  0  0  0  0  0  0  0  0  0  0  0
   17.5372   20.5910   22.6473 H   0  0  0  0  0  0  0  0  0  0  0  0
   19.2661   20.7875   22.4679 H   0  0  0  0  0  0  0  0  0  0  0  0
   18.4986   18.9535   21.5975 C   0  0  0  0  0  0  0  0  0  0  0  0
   19.4806   18.4635   21.5563 H   0  0  0  0  0  0  0  0  0  0  0  0
   18.3643   19.4393   20.6209 H   0  0  0  0  0  0  0  0  0  0  0  0
   17.3919   17.8901   21.7801 C   0  0  0  0  0  0  0  0  0  0  0  0
   17.5458   17.3016   22.6930 H   0  0  0  0  0  0  0  0  0  0  0  0
   17.3863   17.1914   20.9335 H   0  0  0  0  0  0  0  0  0  0  0  0
   16.4005   18.3580   21.8357 H   0  0  0  0  0  0  0  0  0  0  0  0
   23.7355   19.5734   23.8769 C   0  0  0  0  0  0  0  0  0  0  0  0
   23.7403   20.4849   24.4787 H   0  0  0  0  0  0  0  0  0  0  0  0
   24.6495   19.0046   24.0616 H   0  0  0  0  0  0  0  0  0  0  0  0
   23.6684   19.8299   22.8173 H   0  0  0  0  0  0  0  0  0  0  0  0
  1  2  1  0  0  0  0
  1  3  1  0  0  0  0
  1  4  1  0  0  0  0
  4  5  1  0  0  0  0
  4  6  1  0  0  0  0
  4  7  1  0  0  0  0
  7  8  1  0  0  0  0
  7  9  1  0  0  0  0
  7 10  1  0  0  0  0
 10 11  1  0  0  0  0
 10 12  1  0  0  0  0
 10 13  1  0  0  0  0
 13 14  1  0  0  0  0
 13 15  1  0  0  0  0
 13 16  1  0  0  0  0
 16 17  1  0  0  0  0
 16 18  1  0  0  0  0
 16 19  1  0  0  0  0
 19 20  1  0  0  0  0
 19 21  1  0  0  0  0
 19 22  1  0  0  0  0
  1 23  1  0  0  0  0
 23 24  1  0  0  0  0
 23 25  1  0  0  0  0
 23 26  1  0  0  0  0
M  END
> <VConfSearch Rank>
478

> <Conf_Id>
71

> <Delta U+W>
1.096

> <U+W>
22.938

> <U>
72.455

> <W>
-49.517

> <W(PB)>
-51.795

> <W(SA)>
2.278

> <Valence>
2.908

> <Coulomb>
69.435

> <VdW>
0.112

> <VdW6>
-7.766

> <VdW12>
7.877

> <Bond>
0.233

> <Angle>
1.170

> <Pdih>
1.506

> <Idih>
0.000

> <Tether>
0.000

$$$$
VeraChem MOL file


 26 25  0  0  0  0  0  0  0  0999 V2000     
   18.6055   19.9457   21.4424 N   0  3  0  0  0  0  0  0  0  0  0  0
   18.4938   20.2345   22.4257 H   0  0  0  0  0  0  0  0  0  0  0  0
   17.6465   19.7764   21.0998 H   0  0  0  0  0  0  0  0  0  0  0  0
   19.4091   18.6571   21.3679 C   0  0  0  0  0  0  0  0  0  0  0  0
   19.5208   18.3964   20.3124 H   0  0  0  0  0  0  0  0  0  0  0  0
   18.8148   17.8737   21.8441 H   0  0  0  0  0  0  0  0  0  0  0  0
   20.8015   18.7123   22.0367 C   0  0  0  0  0  0  0  0  0  0  0  0
   21.2817   17.7309   21.9275 H   0  0  0  0  0  0  0  0  0  0  0  0
   21.4383   19.4213   21.4920 H   0  0  0  0  0  0  0  0  0  0  0  0
   20.7707   19.1013   23.5364 C   0  0  0  0  0  0  0  0  0  0  0  0
   20.3647   20.1153   23.6502 H   0  0  0  0  0  0  0  0  0  0  0  0
   21.8063   19.1452   23.8975 H   0  0  0  0  0  0  0  0  0  0  0  0
   19.9595   18.1089   24.4080 C   0  0  0  0  0  0  0  0  0  0  0  0
   18.9312   18.0410   24.0297 H   0  0  0  0  0  0  0  0  0  0  0  0
   20.3885   17.1014   24.3178 H   0  0  0  0  0  0  0  0  0  0  0  0
   19.8961   18.5106   25.9018 C   0  0  0  0  0  0  0  0  0  0  0  0
   19.2137   17.8238   26.4219 H   0  0  0  0  0  0  0  0  0  0  0  0
   19.4557   19.5126   25.9995 H   0  0  0  0  0  0  0  0  0  0  0  0
   21.2701   18.4751   26.6093 C   0  0  0  0  0  0  0  0  0  0  0  0
   21.9512   19.2356   26.2081 H   0  0  0  0  0  0  0  0  0  0  0  0
   21.7467   17.4925   26.4980 H   0  0  0  0  0  0  0  0  0  0  0  0
   21.1540   18.6714   27.6831 H   0  0  0  0  0  0  0  0  0  0  0  0
   19.2614   21.0524   20.6248 C   0  0  0  0  0  0  0  0  0  0  0  0
   18.6421   21.9506   20.6773 H   0  0  0  0  0  0  0  0  0  0  0  0
   20.2515   21.2644   21.0335 H   0  0  0  0  0  0  0  0  0  0  0  0
   19.3507   20.7261   19.5864 H   0  0  0  0  0  0  0  0  0  0  0  0
  1  2  1  0  0  0  0
  1  3  1  0  0  0  0
  1  4  1  0  0  0  0
  4  5  1  0  0  0  0
  4  6  1  0  0  0  0
  4  7  1  0  0  0  0
  7  8  1  0  0  0  0
  7  9  1  0  0  0  0
  7 10  1  0  0  0  0
 10 11  1  0  0  0  0
 10 12  1  0  0  0  0
 10 13  1  0  0  0  0
 13 14  1  0  0  0  0
 13 15  1  0  0  0  0
 13 16  1  0  0  0  0
 16 17  1  0  0  0  0
 16 18  1  0  0  0  0
 16 19  1  0  0  0  0
 19 20  1  0  0  0  0
 19 21  1  0  0  0  0
 19 22  1  0  0  0  0
  1 23  1  0  0  0  0
 23 24  1  0  0  0  0
 23 25  1  0  0  0  0
 23 26  1  0  0  0  0
M  END
> <VConfSearch Rank>
479

> <Conf_Id>
84

> <Delta U+W>
1.456

> <U+W>
23.298

> <U>
73.042

> <W>
-49.744

> <W(PB)>
-51.966

> <W(SA)>
2.222

> <Valence>
2.938

> <Coulomb>
69.625

> <VdW>
0.478

> <VdW6>
-8.182

> <VdW12>
8.660

> <Bond>
0.253

> <Angle>
1.038

> <Pdih>
1.647

> <Idih>
0.000

> <Tether>
0.000

$$$$
VeraChem MOL file


 26 25  0  0  0  0  0  0  0  0999 V2000     
   22.2212   18.4604   23.5497 N   0  3  0  0  0  0  0  0  0  0  0  0
   21.9136   19.4298   23.3804 H   0  0  0  0  0  0  0  0  0  0  0  0
   22.8491   18.2276   22.7648 H   0  0  0  0  0  0  0  0  0  0  0  0
   21.0238   17.5304   23.5531 C   0  0  0  0  0  0  0  0  0  0  0  0
   20.3869   17.8046   24.3974 H   0  0  0  0  0  0  0  0  0  0  0  0
   21.3930   16.5157   23.7223 H   0  0  0  0  0  0  0  0  0  0  0  0
   20.2027   17.5655   22.2475 C   0  0  0  0  0  0  0  0  0  0  0  0
   20.8381   17.2377   21.4140 H   0  0  0  0  0  0  0  0  0  0  0  0
   19.3925   16.8281   22.3222 H   0  0  0  0  0  0  0  0  0  0  0  0
   19.5998   18.9544   21.9174 C   0  0  0  0  0  0  0  0  0  0  0  0
   19.0479   18.8788   20.9702 H   0  0  0  0  0  0  0  0  0  0  0  0
   20.4053   19.6801   21.7424 H   0  0  0  0  0  0  0  0  0  0  0  0
   18.6484   19.4834   23.0177 C   0  0  0  0  0  0  0  0  0  0  0  0
   17.8581   18.7436   23.2061 H   0  0  0  0  0  0  0  0  0  0  0  0
   19.1966   19.6100   23.9608 H   0  0  0  0  0  0  0  0  0  0  0  0
   18.0063   20.8317   22.6218 C   0  0  0  0  0  0  0  0  0  0  0  0
   17.4455   20.7149   21.6838 H   0  0  0  0  0  0  0  0  0  0  0  0
   18.7924   21.5755   22.4301 H   0  0  0  0  0  0  0  0  0  0  0  0
   17.0598   21.3594   23.7211 C   0  0  0  0  0  0  0  0  0  0  0  0
   16.2425   20.6517   23.9117 H   0  0  0  0  0  0  0  0  0  0  0  0
   16.6133   22.3165   23.4216 H   0  0  0  0  0  0  0  0  0  0  0  0
   17.5996   21.5201   24.6635 H   0  0  0  0  0  0  0  0  0  0  0  0
   22.9611   18.3584   24.8761 C   0  0  0  0  0  0  0  0  0  0  0  0
   23.3025   17.3307   25.0185 H   0  0  0  0  0  0  0  0  0  0  0  0
   23.8197   19.0334   24.8603 H   0  0  0  0  0  0  0  0  0  0  0  0
   22.2855   18.6396   25.6869 H   0  0  0  0  0  0  0  0  0  0  0  0
  1  2  1  0  0  0  0
  1  3  1  0  0  0  0
  1  4  1  0  0  0  0
  4  5  1  0  0  0  0
  4  6  1  0  0  0  0
  4  7  1  0  0  0  0
  7  8  1  0  0  0  0
  7  9  1  0  0  0  0
  7 10  1  0  0  0  0
 10 11  1  0  0  0  0
 10 12  1  0  0  0  0
 10 13  1  0  0  0  0
 13 14  1  0  0  0  0
 13 15  1  0  0  0  0
 13 16  1  0  0  0  0
 16 17  1  0  0  0  0
 16 18  1  0  0  0  0
 16 19  1  0  0  0  0
 19 20  1  0  0  0  0
 19 21  1  0  0  0  0
 19 22  1  0  0  0  0
  1 23  1  0  0  0  0
 23 24  1  0  0  0  0
 23 25  1  0  0  0  0
 23 26  1  0  0  0  0
M  END
> <VConfSearch Rank>
480

> <Conf_Id>
73

> <Delta U+W>
0.884

> <U+W>
22.726

> <U>
71.905

> <W>
-49.179

> <W(PB)>
-51.494

> <W(SA)>
2.315

> <Valence>
2.125

> <Coulomb>
69.686

> <VdW>
0.093

> <VdW6>
-6.766

> <VdW12>
6.859

> <Bond>
0.169

> <Angle>
0.621

> <Pdih>
1.336

> <Idih>
0.000

> <Tether>
0.000

$$$$
VeraChem MOL file


 26 25  0  0  0  0  0  0  0  0999 V2000     
   19.5741   15.9017   23.6561 N   0  3  0  0  0  0  0  0  0  0  0  0
   18.5789   15.9756   23.9190 H   0  0  0  0  0  0  0  0  0  0  0  0
   20.0882   15.8227   24.5473 H   0  0  0  0  0  0  0  0  0  0  0  0
   20.0113   17.1454   22.9086 C   0  0  0  0  0  0  0  0  0  0  0  0
   19.4394   17.1960   21.9786 H   0  0  0  0  0  0  0  0  0  0  0  0
   21.0687   17.0309   22.6568 H   0  0  0  0  0  0  0  0  0  0  0  0
   19.8079   18.4422   23.7130 C   0  0  0  0  0  0  0  0  0  0  0  0
   18.7471   18.5448   23.9780 H   0  0  0  0  0  0  0  0  0  0  0  0
   20.3709   18.3802   24.6539 H   0  0  0  0  0  0  0  0  0  0  0  0
   20.2666   19.6815   22.9129 C   0  0  0  0  0  0  0  0  0  0  0  0
   19.7049   19.7369   21.9699 H   0  0  0  0  0  0  0  0  0  0  0  0
   21.3268   19.5724   22.6448 H   0  0  0  0  0  0  0  0  0  0  0  0
   20.0672   20.9901   23.7111 C   0  0  0  0  0  0  0  0  0  0  0  0
   19.0071   21.0994   23.9791 H   0  0  0  0  0  0  0  0  0  0  0  0
   20.6289   20.9349   24.6540 H   0  0  0  0  0  0  0  0  0  0  0  0
   20.5261   22.2294   22.9106 C   0  0  0  0  0  0  0  0  0  0  0  0
   19.9653   22.2906   21.9673 H   0  0  0  0  0  0  0  0  0  0  0  0
   21.5869   22.1261   22.6421 H   0  0  0  0  0  0  0  0  0  0  0  0
   20.3254   23.5341   23.7107 C   0  0  0  0  0  0  0  0  0  0  0  0
   20.6567   24.4022   23.1262 H   0  0  0  0  0  0  0  0  0  0  0  0
   20.9021   23.5173   24.6447 H   0  0  0  0  0  0  0  0  0  0  0  0
   19.2678   23.6831   23.9646 H   0  0  0  0  0  0  0  0  0  0  0  0
   19.8084   14.6693   22.7934 C   0  0  0  0  0  0  0  0  0  0  0  0
   20.8719   14.5940   22.5560 H   0  0  0  0  0  0  0  0  0  0  0  0
   19.4894   13.7811   23.3433 H   0  0  0  0  0  0  0  0  0  0  0  0
   19.2290   14.7605   21.8720 H   0  0  0  0  0  0  0  0  0  0  0  0
  1  2  1  0  0  0  0
  1  3  1  0  0  0  0
  1  4  1  0  0  0  0
  4  5  1  0  0  0  0
  4  6  1  0  0  0  0
  4  7  1  0  0  0  0
  7  8  1  0  0  0  0
  7  9  1  0  0  0  0
  7 10  1  0  0  0  0
 10 11  1  0  0  0  0
 10 12  1  0  0  0  0
 10 13  1  0  0  0  0
 13 14  1  0  0  0  0
 13 15  1  0  0  0  0
 13 16  1  0  0  0  0
 16 17  1  0  0  0  0
 16 18  1  0  0  0  0
 16 19  1  0  0  0  0
 19 20  1  0  0  0  0
 19 21  1  0  0  0  0
 19 22  1  0  0  0  0
  1 23  1  0  0  0  0
 23 24  1  0  0  0  0
 23 25  1  0  0  0  0
 23 26  1  0  0  0  0
M  END
> <VConfSearch Rank>
481

> <Conf_Id>
11

> <Delta U+W>
0.000

> <U+W>
21.842

> <U>
70.357

> <W>
-48.515

> <W(PB)>
-50.856

> <W(SA)>
2.341

> <Valence>
1.714

> <Coulomb>
68.480

> <VdW>
0.163

> <VdW6>
-5.268

> <VdW12>
5.431

> <Bond>
0.126

> <Angle>
0.350

> <Pdih>
1.238

> <Idih>
0.000

> <Tether>
0.000

$$$$
VeraChem MOL file


 26 25  0  0  0  0  0  0  0  0999 V2000     
   22.4409   20.7899   24.8289 N   0  3  0  0  0  0  0  0  0  0  0  0
   23.3667   20.6121   25.2500 H   0  0  0  0  0  0  0  0  0  0  0  0
   21.8399   21.0739   25.6180 H   0  0  0  0  0  0  0  0  0  0  0  0
   21.9140   19.5103   24.2010 C   0  0  0  0  0  0  0  0  0  0  0  0
   22.0222   18.7159   24.9439 H   0  0  0  0  0  0  0  0  0  0  0  0
   22.5524   19.2661   23.3482 H   0  0  0  0  0  0  0  0  0  0  0  0
   20.4405   19.5776   23.7508 C   0  0  0  0  0  0  0  0  0  0  0  0
   19.8127   19.8720   24.6023 H   0  0  0  0  0  0  0  0  0  0  0  0
   20.3224   20.3510   22.9809 H   0  0  0  0  0  0  0  0  0  0  0  0
   19.9586   18.2194   23.1945 C   0  0  0  0  0  0  0  0  0  0  0  0
   20.0787   17.4447   23.9647 H   0  0  0  0  0  0  0  0  0  0  0  0
   20.5933   17.9253   22.3468 H   0  0  0  0  0  0  0  0  0  0  0  0
   18.4819   18.2727   22.7407 C   0  0  0  0  0  0  0  0  0  0  0  0
   17.8473   18.5669   23.5881 H   0  0  0  0  0  0  0  0  0  0  0  0
   18.3618   19.0470   21.9703 H   0  0  0  0  0  0  0  0  0  0  0  0
   18.0003   16.9141   22.1843 C   0  0  0  0  0  0  0  0  0  0  0  0
   18.1162   16.1364   22.9523 H   0  0  0  0  0  0  0  0  0  0  0  0
   18.6307   16.6164   21.3346 H   0  0  0  0  0  0  0  0  0  0  0  0
   16.5255   16.9711   21.7321 C   0  0  0  0  0  0  0  0  0  0  0  0
   16.2021   15.9980   21.3404 H   0  0  0  0  0  0  0  0  0  0  0  0
   16.3841   17.7170   20.9391 H   0  0  0  0  0  0  0  0  0  0  0  0
   15.8655   17.2332   22.5694 H   0  0  0  0  0  0  0  0  0  0  0  0
   22.5475   21.9082   23.7982 C   0  0  0  0  0  0  0  0  0  0  0  0
   21.5542   22.1343   23.4054 H   0  0  0  0  0  0  0  0  0  0  0  0
   22.9635   22.7972   24.2776 H   0  0  0  0  0  0  0  0  0  0  0  0
   23.2033   21.5865   22.9862 H   0  0  0  0  0  0  0  0  0  0  0  0
  1  2  1  0  0  0  0
  1  3  1  0  0  0  0
  1  4  1  0  0  0  0
  4  5  1  0  0  0  0
  4  6  1  0  0  0  0
  4  7  1  0  0  0  0
  7  8  1  0  0  0  0
  7  9  1  0  0  0  0
  7 10  1  0  0  0  0
 10 11  1  0  0  0  0
 10 12  1  0  0  0  0
 10 13  1  0  0  0  0
 13 14  1  0  0  0  0
 13 15  1  0  0  0  0
 13 16  1  0  0  0  0
 16 17  1  0  0  0  0
 16 18  1  0  0  0  0
 16 19  1  0  0  0  0
 19 20  1  0  0  0  0
 19 21  1  0  0  0  0
 19 22  1  0  0  0  0
  1 23  1  0  0  0  0
 23 24  1  0  0  0  0
 23 25  1  0  0  0  0
 23 26  1  0  0  0  0
M  END
> <VConfSearch Rank>
482

> <Conf_Id>
102

> <Delta U+W>
0.121

> <U+W>
21.963

> <U>
70.745

> <W>
-48.782

> <W(PB)>
-51.111

> <W(SA)>
2.329

> <Valence>
1.993

> <Coulomb>
68.323

> <VdW>
0.429

> <VdW6>
-5.973

> <VdW12>
6.402

> <Bond>
0.161

> <Angle>
0.472

> <Pdih>
1.360

> <Idih>
0.000

> <Tether>
0.000

$$$$
VeraChem MOL file


 26 25  0  0  0  0  0  0  0  0999 V2000     
   23.4438   19.4304   23.6716 N   0  3  0  0  0  0  0  0  0  0  0  0
   23.4014   19.3991   24.7020 H   0  0  0  0  0  0  0  0  0  0  0  0
   24.1740   20.1279   23.4564 H   0  0  0  0  0  0  0  0  0  0  0  0
   22.1131   19.8963   23.1049 C   0  0  0  0  0  0  0  0  0  0  0  0
   22.1865   19.8778   22.0146 H   0  0  0  0  0  0  0  0  0  0  0  0
   21.9727   20.9342   23.4176 H   0  0  0  0  0  0  0  0  0  0  0  0
   20.8963   19.0665   23.5627 C   0  0  0  0  0  0  0  0  0  0  0  0
   21.0086   18.0271   23.2281 H   0  0  0  0  0  0  0  0  0  0  0  0
   20.8593   19.0496   24.6600 H   0  0  0  0  0  0  0  0  0  0  0  0
   19.5771   19.6468   23.0068 C   0  0  0  0  0  0  0  0  0  0  0  0
   19.6207   19.6681   21.9088 H   0  0  0  0  0  0  0  0  0  0  0  0
   19.4656   20.6880   23.3403 H   0  0  0  0  0  0  0  0  0  0  0  0
   18.3488   18.8247   23.4595 C   0  0  0  0  0  0  0  0  0  0  0  0
   18.4599   17.7836   23.1257 H   0  0  0  0  0  0  0  0  0  0  0  0
   18.3052   18.8031   24.5572 H   0  0  0  0  0  0  0  0  0  0  0  0
   17.0295   19.4054   22.9033 C   0  0  0  0  0  0  0  0  0  0  0  0
   17.0672   19.4270   21.8051 H   0  0  0  0  0  0  0  0  0  0  0  0
   16.9123   20.4461   23.2366 H   0  0  0  0  0  0  0  0  0  0  0  0
   15.8054   18.5818   23.3572 C   0  0  0  0  0  0  0  0  0  0  0  0
   15.8770   17.5431   23.0088 H   0  0  0  0  0  0  0  0  0  0  0  0
   14.8788   19.0093   22.9526 H   0  0  0  0  0  0  0  0  0  0  0  0
   15.7209   18.5701   24.4517 H   0  0  0  0  0  0  0  0  0  0  0  0
   23.8417   18.0727   23.1036 C   0  0  0  0  0  0  0  0  0  0  0  0
   23.8964   18.1413   22.0150 H   0  0  0  0  0  0  0  0  0  0  0  0
   24.8175   17.7899   23.5047 H   0  0  0  0  0  0  0  0  0  0  0  0
   23.0971   17.3277   23.3913 H   0  0  0  0  0  0  0  0  0  0  0  0
  1  2  1  0  0  0  0
  1  3  1  0  0  0  0
  1  4  1  0  0  0  0
  4  5  1  0  0  0  0
  4  6  1  0  0  0  0
  4  7  1  0  0  0  0
  7  8  1  0  0  0  0
  7  9  1  0  0  0  0
  7 10  1  0  0  0  0
 10 11  1  0  0  0  0
 10 12  1  0  0  0  0
 10 13  1  0  0  0  0
 13 14  1  0  0  0  0
 13 15  1  0  0  0  0
 13 16  1  0  0  0  0
 16 17  1  0  0  0  0
 16 18  1  0  0  0  0
 16 19  1  0  0  0  0
 19 20  1  0  0  0  0
 19 21  1  0  0  0  0
 19 22  1  0  0  0  0
  1 23  1  0  0  0  0
 23 24  1  0  0  0  0
 23 25  1  0  0  0  0
 23 26  1  0  0  0  0
M  END
> <VConfSearch Rank>
483

> <Conf_Id>
37

> <Delta U+W>
0.125

> <U+W>
21.967

> <U>
70.745

> <W>
-48.778

> <W(PB)>
-51.115

> <W(SA)>
2.337

> <Valence>
1.993

> <Coulomb>
68.323

> <VdW>
0.429

> <VdW6>
-5.973

> <VdW12>
6.403

> <Bond>
0.161

> <Angle>
0.472

> <Pdih>
1.360

> <Idih>
0.000

> <Tether>
0.000

$$$$
VeraChem MOL file


 26 25  0  0  0  0  0  0  0  0999 V2000     
   20.3650   16.0986   22.8933 N   0  3  0  0  0  0  0  0  0  0  0  0
   19.8182   15.7757   22.0799 H   0  0  0  0  0  0  0  0  0  0  0  0
   19.8237   15.8059   23.7216 H   0  0  0  0  0  0  0  0  0  0  0  0
   20.5027   17.6075   22.8651 C   0  0  0  0  0  0  0  0  0  0  0  0
   21.0705   17.8758   21.9706 H   0  0  0  0  0  0  0  0  0  0  0  0
   21.0812   17.9048   23.7428 H   0  0  0  0  0  0  0  0  0  0  0  0
   19.1481   18.3422   22.8586 C   0  0  0  0  0  0  0  0  0  0  0  0
   18.5592   17.9986   21.9978 H   0  0  0  0  0  0  0  0  0  0  0  0
   18.5772   18.0734   23.7573 H   0  0  0  0  0  0  0  0  0  0  0  0
   19.3000   19.8799   22.7796 C   0  0  0  0  0  0  0  0  0  0  0  0
   18.3000   20.3182   22.6660 H   0  0  0  0  0  0  0  0  0  0  0  0
   19.8617   20.1464   21.8736 H   0  0  0  0  0  0  0  0  0  0  0  0
   19.9957   20.4873   24.0246 C   0  0  0  0  0  0  0  0  0  0  0  0
   19.4225   20.2376   24.9281 H   0  0  0  0  0  0  0  0  0  0  0  0
   20.9862   20.0308   24.1515 H   0  0  0  0  0  0  0  0  0  0  0  0
   20.1813   22.0219   23.9394 C   0  0  0  0  0  0  0  0  0  0  0  0
   20.7641   22.2769   23.0432 H   0  0  0  0  0  0  0  0  0  0  0  0
   20.7811   22.3519   24.7992 H   0  0  0  0  0  0  0  0  0  0  0  0
   18.8488   22.8055   23.9340 C   0  0  0  0  0  0  0  0  0  0  0  0
   18.2659   22.6058   23.0265 H   0  0  0  0  0  0  0  0  0  0  0  0
   19.0389   23.8860   23.9714 H   0  0  0  0  0  0  0  0  0  0  0  0
   18.2327   22.5435   24.8039 H   0  0  0  0  0  0  0  0  0  0  0  0
   21.7436   15.4528   22.9004 C   0  0  0  0  0  0  0  0  0  0  0  0
   22.2904   15.7830   23.7864 H   0  0  0  0  0  0  0  0  0  0  0  0
   21.6302   14.3666   22.9206 H   0  0  0  0  0  0  0  0  0  0  0  0
   22.2844   15.7505   21.9994 H   0  0  0  0  0  0  0  0  0  0  0  0
  1  2  1  0  0  0  0
  1  3  1  0  0  0  0
  1  4  1  0  0  0  0
  4  5  1  0  0  0  0
  4  6  1  0  0  0  0
  4  7  1  0  0  0  0
  7  8  1  0  0  0  0
  7  9  1  0  0  0  0
  7 10  1  0  0  0  0
 10 11  1  0  0  0  0
 10 12  1  0  0  0  0
 10 13  1  0  0  0  0
 13 14  1  0  0  0  0
 13 15  1  0  0  0  0
 13 16  1  0  0  0  0
 16 17  1  0  0  0  0
 16 18  1  0  0  0  0
 16 19  1  0  0  0  0
 19 20  1  0  0  0  0
 19 21  1  0  0  0  0
 19 22  1  0  0  0  0
  1 23  1  0  0  0  0
 23 24  1  0  0  0  0
 23 25  1  0  0  0  0
 23 26  1  0  0  0  0
M  END
> <VConfSearch Rank>
484

> <Conf_Id>
137

> <Delta U+W>
1.038

> <U+W>
22.880

> <U>
71.810

> <W>
-48.930

> <W(PB)>
-51.257

> <W(SA)>
2.327

> <Valence>
2.568

> <Coulomb>
68.877

> <VdW>
0.364

> <VdW6>
-6.470

> <VdW12>
6.834

> <Bond>
0.191

> <Angle>
0.752

> <Pdih>
1.626

> <Idih>
0.000

> <Tether>
0.000

$$$$
VeraChem MOL file


 26 25  0  0  0  0  0  0  0  0999 V2000     
   22.6631   20.5368   23.2560 N   0  3  0  0  0  0  0  0  0  0  0  0
   23.0968   19.6601   22.9270 H   0  0  0  0  0  0  0  0  0  0  0  0
   22.7858   20.5362   24.2806 H   0  0  0  0  0  0  0  0  0  0  0  0
   21.1887   20.5546   22.9059 C   0  0  0  0  0  0  0  0  0  0  0  0
   21.1026   20.5464   21.8164 H   0  0  0  0  0  0  0  0  0  0  0  0
   20.7674   21.4922   23.2775 H   0  0  0  0  0  0  0  0  0  0  0  0
   20.4080   19.3662   23.4960 C   0  0  0  0  0  0  0  0  0  0  0  0
   20.8517   18.4314   23.1311 H   0  0  0  0  0  0  0  0  0  0  0  0
   20.5108   19.3693   24.5893 H   0  0  0  0  0  0  0  0  0  0  0  0
   18.9105   19.4309   23.1133 C   0  0  0  0  0  0  0  0  0  0  0  0
   18.8045   19.3783   22.0208 H   0  0  0  0  0  0  0  0  0  0  0  0
   18.5075   20.4079   23.4148 H   0  0  0  0  0  0  0  0  0  0  0  0
   18.0531   18.3220   23.7720 C   0  0  0  0  0  0  0  0  0  0  0  0
   18.1449   18.3856   24.8651 H   0  0  0  0  0  0  0  0  0  0  0  0
   16.9966   18.5156   23.5405 H   0  0  0  0  0  0  0  0  0  0  0  0
   18.4172   16.8941   23.3001 C   0  0  0  0  0  0  0  0  0  0  0  0
   19.4469   16.6487   23.5917 H   0  0  0  0  0  0  0  0  0  0  0  0
   18.3759   16.8438   22.2030 H   0  0  0  0  0  0  0  0  0  0  0  0
   17.4633   15.8369   23.8964 C   0  0  0  0  0  0  0  0  0  0  0  0
   17.5044   15.8423   24.9934 H   0  0  0  0  0  0  0  0  0  0  0  0
   17.7373   14.8305   23.5541 H   0  0  0  0  0  0  0  0  0  0  0  0
   16.4253   16.0246   23.5923 H   0  0  0  0  0  0  0  0  0  0  0  0
   23.3574   21.7414   22.6359 C   0  0  0  0  0  0  0  0  0  0  0  0
   22.9041   22.6563   23.0237 H   0  0  0  0  0  0  0  0  0  0  0  0
   24.4181   21.7165   22.8956 H   0  0  0  0  0  0  0  0  0  0  0  0
   23.2425   21.7027   21.5504 H   0  0  0  0  0  0  0  0  0  0  0  0
  1  2  1  0  0  0  0
  1  3  1  0  0  0  0
  1  4  1  0  0  0  0
  4  5  1  0  0  0  0
  4  6  1  0  0  0  0
  4  7  1  0  0  0  0
  7  8  1  0  0  0  0
  7  9  1  0  0  0  0
  7 10  1  0  0  0  0
 10 11  1  0  0  0  0
 10 12  1  0  0  0  0
 10 13  1  0  0  0  0
 13 14  1  0  0  0  0
 13 15  1  0  0  0  0
 13 16  1  0  0  0  0
 16 17  1  0  0  0  0
 16 18  1  0  0  0  0
 16 19  1  0  0  0  0
 19 20  1  0  0  0  0
 19 21  1  0  0  0  0
 19 22  1  0  0  0  0
  1 23  1  0  0  0  0
 23 24  1  0  0  0  0
 23 25  1  0  0  0  0
 23 26  1  0  0  0  0
M  END
> <VConfSearch Rank>
485

> <Conf_Id>
35

> <Delta U+W>
0.670

> <U+W>
22.512

> <U>
71.348

> <W>
-48.837

> <W(PB)>
-51.150

> <W(SA)>
2.313

> <Valence>
2.262

> <Coulomb>
68.807

> <VdW>
0.280

> <VdW6>
-5.915

> <VdW12>
6.195

> <Bond>
0.164

> <Angle>
0.622

> <Pdih>
1.475

> <Idih>
0.000

> <Tether>
0.000

$$$$
VeraChem MOL file


 26 25  0  0  0  0  0  0  0  0999 V2000     
   20.2952   19.5635   20.3744 N   0  3  0  0  0  0  0  0  0  0  0  0
   21.2483   19.1747   20.3007 H   0  0  0  0  0  0  0  0  0  0  0  0
   20.4226   20.5593   20.6128 H   0  0  0  0  0  0  0  0  0  0  0  0
   19.5256   18.8569   21.4722 C   0  0  0  0  0  0  0  0  0  0  0  0
   19.4200   17.8076   21.1854 H   0  0  0  0  0  0  0  0  0  0  0  0
   18.5287   19.3020   21.5228 H   0  0  0  0  0  0  0  0  0  0  0  0
   20.2054   18.9514   22.8503 C   0  0  0  0  0  0  0  0  0  0  0  0
   21.2125   18.5177   22.7905 H   0  0  0  0  0  0  0  0  0  0  0  0
   20.3228   20.0088   23.1185 H   0  0  0  0  0  0  0  0  0  0  0  0
   19.3843   18.2141   23.9345 C   0  0  0  0  0  0  0  0  0  0  0  0
   19.2087   17.1799   23.6068 H   0  0  0  0  0  0  0  0  0  0  0  0
   18.3932   18.6792   24.0291 H   0  0  0  0  0  0  0  0  0  0  0  0
   20.0757   18.1792   25.3199 C   0  0  0  0  0  0  0  0  0  0  0  0
   19.4820   17.5409   25.9890 H   0  0  0  0  0  0  0  0  0  0  0  0
   21.0593   17.6980   25.2289 H   0  0  0  0  0  0  0  0  0  0  0  0
   20.2356   19.5749   25.9685 C   0  0  0  0  0  0  0  0  0  0  0  0
   19.2595   20.0779   26.0125 H   0  0  0  0  0  0  0  0  0  0  0  0
   20.8918   20.2059   25.3547 H   0  0  0  0  0  0  0  0  0  0  0  0
   20.8248   19.4770   27.3920 C   0  0  0  0  0  0  0  0  0  0  0  0
   20.1739   18.8861   28.0496 H   0  0  0  0  0  0  0  0  0  0  0  0
   20.9342   20.4751   27.8358 H   0  0  0  0  0  0  0  0  0  0  0  0
   21.8156   19.0045   27.3774 H   0  0  0  0  0  0  0  0  0  0  0  0
   19.5570   19.4217   19.0505 C   0  0  0  0  0  0  0  0  0  0  0  0
   18.5649   19.8691   19.1428 H   0  0  0  0  0  0  0  0  0  0  0  0
   20.1217   19.9346   18.2687 H   0  0  0  0  0  0  0  0  0  0  0  0
   19.4636   18.3620   18.8030 H   0  0  0  0  0  0  0  0  0  0  0  0
  1  2  1  0  0  0  0
  1  3  1  0  0  0  0
  1  4  1  0  0  0  0
  4  5  1  0  0  0  0
  4  6  1  0  0  0  0
  4  7  1  0  0  0  0
  7  8  1  0  0  0  0
  7  9  1  0  0  0  0
  7 10  1  0  0  0  0
 10 11  1  0  0  0  0
 10 12  1  0  0  0  0
 10 13  1  0  0  0  0
 13 14  1  0  0  0  0
 13 15  1  0  0  0  0
 13 16  1  0  0  0  0
 16 17  1  0  0  0  0
 16 18  1  0  0  0  0
 16 19  1  0  0  0  0
 19 20  1  0  0  0  0
 19 21  1  0  0  0  0
 19 22  1  0  0  0  0
  1 23  1  0  0  0  0
 23 24  1  0  0  0  0
 23 25  1  0  0  0  0
 23 26  1  0  0  0  0
M  END
> <VConfSearch Rank>
486

> <Conf_Id>
36

> <Delta U+W>
0.662

> <U+W>
22.504

> <U>
71.348

> <W>
-48.844

> <W(PB)>
-51.157

> <W(SA)>
2.313

> <Valence>
2.262

> <Coulomb>
68.807

> <VdW>
0.280

> <VdW6>
-5.916

> <VdW12>
6.195

> <Bond>
0.164

> <Angle>
0.622

> <Pdih>
1.475

> <Idih>
0.000

> <Tether>
0.000

$$$$
VeraChem MOL file


 26 25  0  0  0  0  0  0  0  0999 V2000     
   18.2938   21.4878   23.0935 N   0  3  0  0  0  0  0  0  0  0  0  0
   18.6888   22.0093   23.8915 H   0  0  0  0  0  0  0  0  0  0  0  0
   17.3018   21.3322   23.3312 H   0  0  0  0  0  0  0  0  0  0  0  0
   19.0071   20.1607   22.9314 C   0  0  0  0  0  0  0  0  0  0  0  0
   20.0508   20.3717   22.6865 H   0  0  0  0  0  0  0  0  0  0  0  0
   18.5535   19.6371   22.0862 H   0  0  0  0  0  0  0  0  0  0  0  0
   18.9356   19.2735   24.1892 C   0  0  0  0  0  0  0  0  0  0  0  0
   19.3899   19.8003   25.0390 H   0  0  0  0  0  0  0  0  0  0  0  0
   17.8823   19.1053   24.4503 H   0  0  0  0  0  0  0  0  0  0  0  0
   19.6294   17.9045   23.9952 C   0  0  0  0  0  0  0  0  0  0  0  0
   19.1546   17.3681   23.1618 H   0  0  0  0  0  0  0  0  0  0  0  0
   19.4610   17.2939   24.8931 H   0  0  0  0  0  0  0  0  0  0  0  0
   21.1513   18.0247   23.7395 C   0  0  0  0  0  0  0  0  0  0  0  0
   21.3337   18.5914   22.8167 H   0  0  0  0  0  0  0  0  0  0  0  0
   21.6177   18.5905   24.5580 H   0  0  0  0  0  0  0  0  0  0  0  0
   21.8251   16.6391   23.6239 C   0  0  0  0  0  0  0  0  0  0  0  0
   21.3618   16.0682   22.8069 H   0  0  0  0  0  0  0  0  0  0  0  0
   21.6565   16.0657   24.5462 H   0  0  0  0  0  0  0  0  0  0  0  0
   23.3425   16.7602   23.3673 C   0  0  0  0  0  0  0  0  0  0  0  0
   23.5434   17.2991   22.4322 H   0  0  0  0  0  0  0  0  0  0  0  0
   23.8029   15.7667   23.2888 H   0  0  0  0  0  0  0  0  0  0  0  0
   23.8397   17.2978   24.1852 H   0  0  0  0  0  0  0  0  0  0  0  0
   18.4147   22.3007   21.8119 C   0  0  0  0  0  0  0  0  0  0  0  0
   17.9611   21.7436   20.9891 H   0  0  0  0  0  0  0  0  0  0  0  0
   17.8968   23.2535   21.9419 H   0  0  0  0  0  0  0  0  0  0  0  0
   19.4707   22.4809   21.5991 H   0  0  0  0  0  0  0  0  0  0  0  0
  1  2  1  0  0  0  0
  1  3  1  0  0  0  0
  1  4  1  0  0  0  0
  4  5  1  0  0  0  0
  4  6  1  0  0  0  0
  4  7  1  0  0  0  0
  7  8  1  0  0  0  0
  7  9  1  0  0  0  0
  7 10  1  0  0  0  0
 10 11  1  0  0  0  0
 10 12  1  0  0  0  0
 10 13  1  0  0  0  0
 13 14  1  0  0  0  0
 13 15  1  0  0  0  0
 13 16  1  0  0  0  0
 16 17  1  0  0  0  0
 16 18  1  0  0  0  0
 16 19  1  0  0  0  0
 19 20  1  0  0  0  0
 19 21  1  0  0  0  0
 19 22  1  0  0  0  0
  1 23  1  0  0  0  0
 23 24  1  0  0  0  0
 23 25  1  0  0  0  0
 23 26  1  0  0  0  0
M  END
> <VConfSearch Rank>
487

> <Conf_Id>
46

> <Delta U+W>
0.496

> <U+W>
22.338

> <U>
71.138

> <W>
-48.799

> <W(PB)>
-51.136

> <W(SA)>
2.337

> <Valence>
2.016

> <Coulomb>
68.932

> <VdW>
0.190

> <VdW6>
-5.902

> <VdW12>
6.092

> <Bond>
0.149

> <Angle>
0.477

> <Pdih>
1.390

> <Idih>
0.000

> <Tether>
0.000

$$$$
VeraChem MOL file


 26 25  0  0  0  0  0  0  0  0999 V2000     
   18.0166   17.2432   21.8790 N   0  3  0  0  0  0  0  0  0  0  0  0
   17.2035   17.6841   21.4215 H   0  0  0  0  0  0  0  0  0  0  0  0
   17.6428   16.7936   22.7292 H   0  0  0  0  0  0  0  0  0  0  0  0
   19.0415   18.2956   22.2512 C   0  0  0  0  0  0  0  0  0  0  0  0
   19.4031   18.7532   21.3269 H   0  0  0  0  0  0  0  0  0  0  0  0
   19.8790   17.7876   22.7351 H   0  0  0  0  0  0  0  0  0  0  0  0
   18.4826   19.3862   23.1853 C   0  0  0  0  0  0  0  0  0  0  0  0
   17.6148   19.8588   22.7062 H   0  0  0  0  0  0  0  0  0  0  0  0
   18.1176   18.9261   24.1132 H   0  0  0  0  0  0  0  0  0  0  0  0
   19.5264   20.4773   23.5216 C   0  0  0  0  0  0  0  0  0  0  0  0
   19.0360   21.2638   24.1118 H   0  0  0  0  0  0  0  0  0  0  0  0
   19.8695   20.9547   22.5931 H   0  0  0  0  0  0  0  0  0  0  0  0
   20.7426   19.9334   24.3095 C   0  0  0  0  0  0  0  0  0  0  0  0
   20.3937   19.4276   25.2205 H   0  0  0  0  0  0  0  0  0  0  0  0
   21.2722   19.1805   23.7105 H   0  0  0  0  0  0  0  0  0  0  0  0
   21.7285   21.0596   24.6929 C   0  0  0  0  0  0  0  0  0  0  0  0
   21.2112   21.8154   25.3005 H   0  0  0  0  0  0  0  0  0  0  0  0
   22.0803   21.5697   23.7851 H   0  0  0  0  0  0  0  0  0  0  0  0
   22.9418   20.5158   25.4772 C   0  0  0  0  0  0  0  0  0  0  0  0
   22.6241   20.0290   26.4085 H   0  0  0  0  0  0  0  0  0  0  0  0
   23.6296   21.3298   25.7406 H   0  0  0  0  0  0  0  0  0  0  0  0
   23.5008   19.7824   24.8815 H   0  0  0  0  0  0  0  0  0  0  0  0
   18.6489   16.2065   20.9606 C   0  0  0  0  0  0  0  0  0  0  0  0
   17.9004   15.4548   20.7001 H   0  0  0  0  0  0  0  0  0  0  0  0
   19.0069   16.7001   20.0544 H   0  0  0  0  0  0  0  0  0  0  0  0
   19.4849   15.7306   21.4779 H   0  0  0  0  0  0  0  0  0  0  0  0
  1  2  1  0  0  0  0
  1  3  1  0  0  0  0
  1  4  1  0  0  0  0
  4  5  1  0  0  0  0
  4  6  1  0  0  0  0
  4  7  1  0  0  0  0
  7  8  1  0  0  0  0
  7  9  1  0  0  0  0
  7 10  1  0  0  0  0
 10 11  1  0  0  0  0
 10 12  1  0  0  0  0
 10 13  1  0  0  0  0
 13 14  1  0  0  0  0
 13 15  1  0  0  0  0
 13 16  1  0  0  0  0
 16 17  1  0  0  0  0
 16 18  1  0  0  0  0
 16 19  1  0  0  0  0
 19 20  1  0  0  0  0
 19 21  1  0  0  0  0
 19 22  1  0  0  0  0
  1 23  1  0  0  0  0
 23 24  1  0  0  0  0
 23 25  1  0  0  0  0
 23 26  1  0  0  0  0
M  END
> <VConfSearch Rank>
488

> <Conf_Id>
45

> <Delta U+W>
0.471

> <U+W>
22.313

> <U>
71.138

> <W>
-48.825

> <W(PB)>
-51.169

> <W(SA)>
2.344

> <Valence>
2.016

> <Coulomb>
68.932

> <VdW>
0.190

> <VdW6>
-5.902

> <VdW12>
6.092

> <Bond>
0.149

> <Angle>
0.477

> <Pdih>
1.390

> <Idih>
0.000

> <Tether>
0.000

$$$$
VeraChem MOL file


 26 25  0  0  0  0  0  0  0  0999 V2000     
   20.6868   21.4179   24.2738 N   0  3  0  0  0  0  0  0  0  0  0  0
   20.3743   20.8123   25.0477 H   0  0  0  0  0  0  0  0  0  0  0  0
   19.8234   21.7593   23.8236 H   0  0  0  0  0  0  0  0  0  0  0  0
   21.5091   20.6152   23.2842 C   0  0  0  0  0  0  0  0  0  0  0  0
   22.4072   20.2641   23.7985 H   0  0  0  0  0  0  0  0  0  0  0  0
   21.8170   21.2935   22.4843 H   0  0  0  0  0  0  0  0  0  0  0  0
   20.7571   19.4151   22.6759 C   0  0  0  0  0  0  0  0  0  0  0  0
   19.8589   19.7784   22.1609 H   0  0  0  0  0  0  0  0  0  0  0  0
   21.3965   18.9576   21.9093 H   0  0  0  0  0  0  0  0  0  0  0  0
   20.3823   18.3487   23.7355 C   0  0  0  0  0  0  0  0  0  0  0  0
   19.6706   18.7686   24.4588 H   0  0  0  0  0  0  0  0  0  0  0  0
   21.2825   18.0813   24.3062 H   0  0  0  0  0  0  0  0  0  0  0  0
   19.7866   17.0560   23.1254 C   0  0  0  0  0  0  0  0  0  0  0  0
   20.5041   16.6172   22.4183 H   0  0  0  0  0  0  0  0  0  0  0  0
   19.6577   16.3185   23.9298 H   0  0  0  0  0  0  0  0  0  0  0  0
   18.4265   17.2740   22.4206 C   0  0  0  0  0  0  0  0  0  0  0  0
   18.5471   17.9505   21.5641 H   0  0  0  0  0  0  0  0  0  0  0  0
   17.7231   17.7580   23.1125 H   0  0  0  0  0  0  0  0  0  0  0  0
   17.8219   15.9427   21.9255 C   0  0  0  0  0  0  0  0  0  0  0  0
   18.4898   15.4487   21.2078 H   0  0  0  0  0  0  0  0  0  0  0  0
   16.8598   16.1158   21.4261 H   0  0  0  0  0  0  0  0  0  0  0  0
   17.6476   15.2526   22.7612 H   0  0  0  0  0  0  0  0  0  0  0  0
   21.5090   22.5831   24.8066 C   0  0  0  0  0  0  0  0  0  0  0  0
   21.8016   23.2264   23.9739 H   0  0  0  0  0  0  0  0  0  0  0  0
   20.9058   23.1517   25.5178 H   0  0  0  0  0  0  0  0  0  0  0  0
   22.3999   22.1954   25.3055 H   0  0  0  0  0  0  0  0  0  0  0  0
  1  2  1  0  0  0  0
  1  3  1  0  0  0  0
  1  4  1  0  0  0  0
  4  5  1  0  0  0  0
  4  6  1  0  0  0  0
  4  7  1  0  0  0  0
  7  8  1  0  0  0  0
  7  9  1  0  0  0  0
  7 10  1  0  0  0  0
 10 11  1  0  0  0  0
 10 12  1  0  0  0  0
 10 13  1  0  0  0  0
 13 14  1  0  0  0  0
 13 15  1  0  0  0  0
 13 16  1  0  0  0  0
 16 17  1  0  0  0  0
 16 18  1  0  0  0  0
 16 19  1  0  0  0  0
 19 20  1  0  0  0  0
 19 21  1  0  0  0  0
 19 22  1  0  0  0  0
  1 23  1  0  0  0  0
 23 24  1  0  0  0  0
 23 25  1  0  0  0  0
 23 26  1  0  0  0  0
M  END
> <VConfSearch Rank>
489

> <Conf_Id>
143

> <Delta U+W>
0.915

> <U+W>
22.757

> <U>
71.994

> <W>
-49.237

> <W(PB)>
-51.537

> <W(SA)>
2.300

> <Valence>
2.376

> <Coulomb>
69.315

> <VdW>
0.303

> <VdW6>
-6.508

> <VdW12>
6.810

> <Bond>
0.182

> <Angle>
0.660

> <Pdih>
1.534

> <Idih>
0.000

> <Tether>
0.000

$$$$
VeraChem MOL file


 26 25  0  0  0  0  0  0  0  0999 V2000     
   18.6064   21.2432   23.2691 N   0  3  0  0  0  0  0  0  0  0  0  0
   17.8502   20.5432   23.3050 H   0  0  0  0  0  0  0  0  0  0  0  0
   18.7904   21.3999   22.2659 H   0  0  0  0  0  0  0  0  0  0  0  0
   19.8499   20.7036   23.9494 C   0  0  0  0  0  0  0  0  0  0  0  0
   19.6148   20.5410   25.0043 H   0  0  0  0  0  0  0  0  0  0  0  0
   20.6195   21.4771   23.8869 H   0  0  0  0  0  0  0  0  0  0  0  0
   20.3882   19.3984   23.3304 C   0  0  0  0  0  0  0  0  0  0  0  0
   20.5953   19.5557   22.2636 H   0  0  0  0  0  0  0  0  0  0  0  0
   21.3466   19.1701   23.8123 H   0  0  0  0  0  0  0  0  0  0  0  0
   19.4210   18.2039   23.5171 C   0  0  0  0  0  0  0  0  0  0  0  0
   18.4296   18.4712   23.1288 H   0  0  0  0  0  0  0  0  0  0  0  0
   19.2862   18.0094   24.5902 H   0  0  0  0  0  0  0  0  0  0  0  0
   19.8726   16.8990   22.8108 C   0  0  0  0  0  0  0  0  0  0  0  0
   19.0905   16.1455   22.9786 H   0  0  0  0  0  0  0  0  0  0  0  0
   19.9070   17.0506   21.7231 H   0  0  0  0  0  0  0  0  0  0  0  0
   21.2186   16.3161   23.3140 C   0  0  0  0  0  0  0  0  0  0  0  0
   21.1534   15.2191   23.2957 H   0  0  0  0  0  0  0  0  0  0  0  0
   21.3854   16.5903   24.3650 H   0  0  0  0  0  0  0  0  0  0  0  0
   22.4309   16.7348   22.4492 C   0  0  0  0  0  0  0  0  0  0  0  0
   22.5737   17.8209   22.4356 H   0  0  0  0  0  0  0  0  0  0  0  0
   22.3068   16.3980   21.4118 H   0  0  0  0  0  0  0  0  0  0  0  0
   23.3532   16.2833   22.8369 H   0  0  0  0  0  0  0  0  0  0  0  0
   18.1680   22.5369   23.9410 C   0  0  0  0  0  0  0  0  0  0  0  0
   18.9716   23.2725   23.8624 H   0  0  0  0  0  0  0  0  0  0  0  0
   17.2725   22.9142   23.4421 H   0  0  0  0  0  0  0  0  0  0  0  0
   17.9488   22.3391   24.9925 H   0  0  0  0  0  0  0  0  0  0  0  0
  1  2  1  0  0  0  0
  1  3  1  0  0  0  0
  1  4  1  0  0  0  0
  4  5  1  0  0  0  0
  4  6  1  0  0  0  0
  4  7  1  0  0  0  0
  7  8  1  0  0  0  0
  7  9  1  0  0  0  0
  7 10  1  0  0  0  0
 10 11  1  0  0  0  0
 10 12  1  0  0  0  0
 10 13  1  0  0  0  0
 13 14  1  0  0  0  0
 13 15  1  0  0  0  0
 13 16  1  0  0  0  0
 16 17  1  0  0  0  0
 16 18  1  0  0  0  0
 16 19  1  0  0  0  0
 19 20  1  0  0  0  0
 19 21  1  0  0  0  0
 19 22  1  0  0  0  0
  1 23  1  0  0  0  0
 23 24  1  0  0  0  0
 23 25  1  0  0  0  0
 23 26  1  0  0  0  0
M  END
> <VConfSearch Rank>
490

> <Conf_Id>
76

> <Delta U+W>
3.468

> <U+W>
25.310

> <U>
74.594

> <W>
-49.283

> <W(PB)>
-51.537

> <W(SA)>
2.253

> <Valence>
4.886

> <Coulomb>
69.332

> <VdW>
0.376

> <VdW6>
-7.329

> <VdW12>
7.705

> <Bond>
0.232

> <Angle>
1.251

> <Pdih>
3.403

> <Idih>
0.000

> <Tether>
0.000

$$$$
VeraChem MOL file


 26 25  0  0  0  0  0  0  0  0999 V2000     
   22.2904   18.3845   24.9140 N   0  3  0  0  0  0  0  0  0  0  0  0
   22.8477   18.6307   24.0812 H   0  0  0  0  0  0  0  0  0  0  0  0
   22.2373   17.3539   24.9142 H   0  0  0  0  0  0  0  0  0  0  0  0
   20.9006   18.9796   24.8083 C   0  0  0  0  0  0  0  0  0  0  0  0
   21.0014   20.0679   24.8038 H   0  0  0  0  0  0  0  0  0  0  0  0
   20.3427   18.6892   25.7021 H   0  0  0  0  0  0  0  0  0  0  0  0
   20.1373   18.5254   23.5510 C   0  0  0  0  0  0  0  0  0  0  0  0
   20.7155   18.7976   22.6609 H   0  0  0  0  0  0  0  0  0  0  0  0
   20.0544   17.4304   23.5532 H   0  0  0  0  0  0  0  0  0  0  0  0
   18.7226   19.1506   23.4947 C   0  0  0  0  0  0  0  0  0  0  0  0
   18.7852   20.2462   23.5508 H   0  0  0  0  0  0  0  0  0  0  0  0
   18.1733   18.8322   24.3918 H   0  0  0  0  0  0  0  0  0  0  0  0
   17.9077   18.7271   22.2445 C   0  0  0  0  0  0  0  0  0  0  0  0
   18.2056   17.7214   21.9171 H   0  0  0  0  0  0  0  0  0  0  0  0
   16.8521   18.6414   22.5375 H   0  0  0  0  0  0  0  0  0  0  0  0
   17.9812   19.7184   21.0548 C   0  0  0  0  0  0  0  0  0  0  0  0
   17.5821   20.6948   21.3634 H   0  0  0  0  0  0  0  0  0  0  0  0
   17.3155   19.3566   20.2587 H   0  0  0  0  0  0  0  0  0  0  0  0
   19.3972   19.9066   20.4677 C   0  0  0  0  0  0  0  0  0  0  0  0
   19.8516   18.9411   20.2104 H   0  0  0  0  0  0  0  0  0  0  0  0
   20.0556   20.4272   21.1737 H   0  0  0  0  0  0  0  0  0  0  0  0
   19.3554   20.5119   19.5530 H   0  0  0  0  0  0  0  0  0  0  0  0
   22.9729   18.8841   26.1798 C   0  0  0  0  0  0  0  0  0  0  0  0
   23.0473   19.9731   26.1418 H   0  0  0  0  0  0  0  0  0  0  0  0
   22.3830   18.5835   27.0485 H   0  0  0  0  0  0  0  0  0  0  0  0
   23.9723   18.4481   26.2439 H   0  0  0  0  0  0  0  0  0  0  0  0
  1  2  1  0  0  0  0
  1  3  1  0  0  0  0
  1  4  1  0  0  0  0
  4  5  1  0  0  0  0
  4  6  1  0  0  0  0
  4  7  1  0  0  0  0
  7  8  1  0  0  0  0
  7  9  1  0  0  0  0
  7 10  1  0  0  0  0
 10 11  1  0  0  0  0
 10 12  1  0  0  0  0
 10 13  1  0  0  0  0
 13 14  1  0  0  0  0
 13 15  1  0  0  0  0
 13 16  1  0  0  0  0
 16 17  1  0  0  0  0
 16 18  1  0  0  0  0
 16 19  1  0  0  0  0
 19 20  1  0  0  0  0
 19 21  1  0  0  0  0
 19 22  1  0  0  0  0
  1 23  1  0  0  0  0
 23 24  1  0  0  0  0
 23 25  1  0  0  0  0
 23 26  1  0  0  0  0
M  END
> <VConfSearch Rank>
491

> <Conf_Id>
123

> <Delta U+W>
3.101

> <U+W>
24.943

> <U>
74.070

> <W>
-49.127

> <W(PB)>
-51.421

> <W(SA)>
2.295

> <Valence>
4.690

> <Coulomb>
69.115

> <VdW>
0.266

> <VdW6>
-6.809

> <VdW12>
7.075

> <Bond>
0.212

> <Angle>
1.133

> <Pdih>
3.345

> <Idih>
0.000

> <Tether>
0.000

$$$$
VeraChem MOL file


 26 25  0  0  0  0  0  0  0  0999 V2000     
   19.8568   18.7733   20.7238 N   0  3  0  0  0  0  0  0  0  0  0  0
   20.2329   17.8244   20.5732 H   0  0  0  0  0  0  0  0  0  0  0  0
   20.6810   19.3849   20.8229 H   0  0  0  0  0  0  0  0  0  0  0  0
   19.0256   18.8099   21.9918 C   0  0  0  0  0  0  0  0  0  0  0  0
   18.1666   18.1510   21.8414 H   0  0  0  0  0  0  0  0  0  0  0  0
   18.6546   19.8296   22.1225 H   0  0  0  0  0  0  0  0  0  0  0  0
   19.7908   18.3709   23.2558 C   0  0  0  0  0  0  0  0  0  0  0  0
   19.0793   18.3259   24.0879 H   0  0  0  0  0  0  0  0  0  0  0  0
   20.1666   17.3484   23.1176 H   0  0  0  0  0  0  0  0  0  0  0  0
   20.9647   19.3215   23.6038 C   0  0  0  0  0  0  0  0  0  0  0  0
   20.6140   20.3619   23.6488 H   0  0  0  0  0  0  0  0  0  0  0  0
   21.6993   19.2829   22.7884 H   0  0  0  0  0  0  0  0  0  0  0  0
   21.6886   18.9475   24.9238 C   0  0  0  0  0  0  0  0  0  0  0  0
   21.6225   17.8654   25.1022 H   0  0  0  0  0  0  0  0  0  0  0  0
   22.7594   19.1611   24.7995 H   0  0  0  0  0  0  0  0  0  0  0  0
   21.2011   19.7249   26.1734 C   0  0  0  0  0  0  0  0  0  0  0  0
   21.3672   20.8012   26.0255 H   0  0  0  0  0  0  0  0  0  0  0  0
   21.8269   19.4362   27.0294 H   0  0  0  0  0  0  0  0  0  0  0  0
   19.7204   19.4808   26.5383 C   0  0  0  0  0  0  0  0  0  0  0  0
   19.5078   18.4084   26.6365 H   0  0  0  0  0  0  0  0  0  0  0  0
   19.0480   19.9036   25.7817 H   0  0  0  0  0  0  0  0  0  0  0  0
   19.4776   19.9597   27.4957 H   0  0  0  0  0  0  0  0  0  0  0  0
   19.0097   19.2078   19.5359 C   0  0  0  0  0  0  0  0  0  0  0  0
   18.6500   20.2252   19.7043 H   0  0  0  0  0  0  0  0  0  0  0  0
   19.6199   19.1773   18.6305 H   0  0  0  0  0  0  0  0  0  0  0  0
   18.1614   18.5277   19.4320 H   0  0  0  0  0  0  0  0  0  0  0  0
  1  2  1  0  0  0  0
  1  3  1  0  0  0  0
  1  4  1  0  0  0  0
  4  5  1  0  0  0  0
  4  6  1  0  0  0  0
  4  7  1  0  0  0  0
  7  8  1  0  0  0  0
  7  9  1  0  0  0  0
  7 10  1  0  0  0  0
 10 11  1  0  0  0  0
 10 12  1  0  0  0  0
 10 13  1  0  0  0  0
 13 14  1  0  0  0  0
 13 15  1  0  0  0  0
 13 16  1  0  0  0  0
 16 17  1  0  0  0  0
 16 18  1  0  0  0  0
 16 19  1  0  0  0  0
 19 20  1  0  0  0  0
 19 21  1  0  0  0  0
 19 22  1  0  0  0  0
  1 23  1  0  0  0  0
 23 24  1  0  0  0  0
 23 25  1  0  0  0  0
 23 26  1  0  0  0  0
M  END
> <VConfSearch Rank>
492

> <Conf_Id>
111

> <Delta U+W>
3.383

> <U+W>
25.225

> <U>
74.516

> <W>
-49.292

> <W(PB)>
-51.558

> <W(SA)>
2.266

> <Valence>
4.842

> <Coulomb>
69.333

> <VdW>
0.342

> <VdW6>
-7.369

> <VdW12>
7.711

> <Bond>
0.232

> <Angle>
1.153

> <Pdih>
3.457

> <Idih>
0.000

> <Tether>
0.000

$$$$
VeraChem MOL file


 26 25  0  0  0  0  0  0  0  0999 V2000     
   17.8559   18.2099   23.7228 N   0  3  0  0  0  0  0  0  0  0  0  0
   17.1778   18.2948   22.9498 H   0  0  0  0  0  0  0  0  0  0  0  0
   18.1339   19.1753   23.9548 H   0  0  0  0  0  0  0  0  0  0  0  0
   19.0665   17.4174   23.2699 C   0  0  0  0  0  0  0  0  0  0  0  0
   18.7280   16.4078   23.0236 H   0  0  0  0  0  0  0  0  0  0  0  0
   19.7573   17.3465   24.1132 H   0  0  0  0  0  0  0  0  0  0  0  0
   19.7907   18.0259   22.0510 C   0  0  0  0  0  0  0  0  0  0  0  0
   20.6195   17.3636   21.7679 H   0  0  0  0  0  0  0  0  0  0  0  0
   19.1032   18.0375   21.1948 H   0  0  0  0  0  0  0  0  0  0  0  0
   20.3384   19.4566   22.2866 C   0  0  0  0  0  0  0  0  0  0  0  0
   19.5083   20.1475   22.4850 H   0  0  0  0  0  0  0  0  0  0  0  0
   20.8040   19.7997   21.3536 H   0  0  0  0  0  0  0  0  0  0  0  0
   21.3713   19.5328   23.4399 C   0  0  0  0  0  0  0  0  0  0  0  0
   20.9140   19.1677   24.3689 H   0  0  0  0  0  0  0  0  0  0  0  0
   22.2147   18.8618   23.2264 H   0  0  0  0  0  0  0  0  0  0  0  0
   21.9030   20.9638   23.6974 C   0  0  0  0  0  0  0  0  0  0  0  0
   22.5342   20.9478   24.5969 H   0  0  0  0  0  0  0  0  0  0  0  0
   21.0646   21.6375   23.9233 H   0  0  0  0  0  0  0  0  0  0  0  0
   22.7284   21.5364   22.5224 C   0  0  0  0  0  0  0  0  0  0  0  0
   22.1086   21.6921   21.6309 H   0  0  0  0  0  0  0  0  0  0  0  0
   23.5541   20.8644   22.2551 H   0  0  0  0  0  0  0  0  0  0  0  0
   23.1616   22.5075   22.7951 H   0  0  0  0  0  0  0  0  0  0  0  0
   17.2143   17.5345   24.9267 C   0  0  0  0  0  0  0  0  0  0  0  0
   16.3453   18.1158   25.2428 H   0  0  0  0  0  0  0  0  0  0  0  0
   16.9017   16.5258   24.6479 H   0  0  0  0  0  0  0  0  0  0  0  0
   17.9411   17.4851   25.7405 H   0  0  0  0  0  0  0  0  0  0  0  0
  1  2  1  0  0  0  0
  1  3  1  0  0  0  0
  1  4  1  0  0  0  0
  4  5  1  0  0  0  0
  4  6  1  0  0  0  0
  4  7  1  0  0  0  0
  7  8  1  0  0  0  0
  7  9  1  0  0  0  0
  7 10  1  0  0  0  0
 10 11  1  0  0  0  0
 10 12  1  0  0  0  0
 10 13  1  0  0  0  0
 13 14  1  0  0  0  0
 13 15  1  0  0  0  0
 13 16  1  0  0  0  0
 16 17  1  0  0  0  0
 16 18  1  0  0  0  0
 16 19  1  0  0  0  0
 19 20  1  0  0  0  0
 19 21  1  0  0  0  0
 19 22  1  0  0  0  0
  1 23  1  0  0  0  0
 23 24  1  0  0  0  0
 23 25  1  0  0  0  0
 23 26  1  0  0  0  0
M  END
> <VConfSearch Rank>
493

> <Conf_Id>
126

> <Delta U+W>
1.519

> <U+W>
23.361

> <U>
72.579

> <W>
-49.218

> <W(PB)>
-51.496

> <W(SA)>
2.279

> <Valence>
2.678

> <Coulomb>
69.622

> <VdW>
0.279

> <VdW6>
-7.328

> <VdW12>
7.608

> <Bond>
0.212

> <Angle>
0.911

> <Pdih>
1.555

> <Idih>
0.000

> <Tether>
0.000

$$$$
VeraChem MOL file


 26 25  0  0  0  0  0  0  0  0999 V2000     
   20.9282   16.8838   23.3476 N   0  3  0  0  0  0  0  0  0  0  0  0
   20.0089   17.1311   22.9514 H   0  0  0  0  0  0  0  0  0  0  0  0
   20.7253   16.3613   24.2138 H   0  0  0  0  0  0  0  0  0  0  0  0
   21.7089   18.1430   23.6690 C   0  0  0  0  0  0  0  0  0  0  0  0
   21.9069   18.6653   22.7301 H   0  0  0  0  0  0  0  0  0  0  0  0
   22.6679   17.8382   24.0956 H   0  0  0  0  0  0  0  0  0  0  0  0
   20.9895   19.0899   24.6520 C   0  0  0  0  0  0  0  0  0  0  0  0
   20.8491   18.5722   25.6101 H   0  0  0  0  0  0  0  0  0  0  0  0
   21.6460   19.9451   24.8605 H   0  0  0  0  0  0  0  0  0  0  0  0
   19.6198   19.6095   24.1459 C   0  0  0  0  0  0  0  0  0  0  0  0
   19.1872   20.2449   24.9296 H   0  0  0  0  0  0  0  0  0  0  0  0
   18.9249   18.7693   24.0166 H   0  0  0  0  0  0  0  0  0  0  0  0
   19.7221   20.4137   22.8246 C   0  0  0  0  0  0  0  0  0  0  0  0
   20.3958   21.2704   22.9638 H   0  0  0  0  0  0  0  0  0  0  0  0
   20.1766   19.7870   22.0461 H   0  0  0  0  0  0  0  0  0  0  0  0
   18.3539   20.9133   22.2999 C   0  0  0  0  0  0  0  0  0  0  0  0
   17.6793   20.0594   22.1471 H   0  0  0  0  0  0  0  0  0  0  0  0
   18.5017   21.3681   21.3104 H   0  0  0  0  0  0  0  0  0  0  0  0
   17.6788   21.9504   23.2264 C   0  0  0  0  0  0  0  0  0  0  0  0
   18.3464   22.7996   23.4217 H   0  0  0  0  0  0  0  0  0  0  0  0
   17.3939   21.5079   24.1888 H   0  0  0  0  0  0  0  0  0  0  0  0
   16.7650   22.3427   22.7617 H   0  0  0  0  0  0  0  0  0  0  0  0
   21.7156   16.0197   22.3726 C   0  0  0  0  0  0  0  0  0  0  0  0
   21.8899   16.5831   21.4533 H   0  0  0  0  0  0  0  0  0  0  0  0
   22.6708   15.7463   22.8260 H   0  0  0  0  0  0  0  0  0  0  0  0
   21.1417   15.1176   22.1492 H   0  0  0  0  0  0  0  0  0  0  0  0
  1  2  1  0  0  0  0
  1  3  1  0  0  0  0
  1  4  1  0  0  0  0
  4  5  1  0  0  0  0
  4  6  1  0  0  0  0
  4  7  1  0  0  0  0
  7  8  1  0  0  0  0
  7  9  1  0  0  0  0
  7 10  1  0  0  0  0
 10 11  1  0  0  0  0
 10 12  1  0  0  0  0
 10 13  1  0  0  0  0
 13 14  1  0  0  0  0
 13 15  1  0  0  0  0
 13 16  1  0  0  0  0
 16 17  1  0  0  0  0
 16 18  1  0  0  0  0
 16 19  1  0  0  0  0
 19 20  1  0  0  0  0
 19 21  1  0  0  0  0
 19 22  1  0  0  0  0
  1 23  1  0  0  0  0
 23 24  1  0  0  0  0
 23 25  1  0  0  0  0
 23 26  1  0  0  0  0
M  END
> <VConfSearch Rank>
494

> <Conf_Id>
134

> <Delta U+W>
1.464

> <U+W>
23.306

> <U>
72.579

> <W>
-49.273

> <W(PB)>
-51.540

> <W(SA)>
2.267

> <Valence>
2.677

> <Coulomb>
69.622

> <VdW>
0.280

> <VdW6>
-7.328

> <VdW12>
7.608

> <Bond>
0.212

> <Angle>
0.911

> <Pdih>
1.555

> <Idih>
0.000

> <Tether>
0.000

$$$$
VeraChem MOL file


 26 25  0  0  0  0  0  0  0  0999 V2000     
   22.2853   20.2563   22.0010 N   0  3  0  0  0  0  0  0  0  0  0  0
   22.6797   19.3032   21.9739 H   0  0  0  0  0  0  0  0  0  0  0  0
   22.7633   20.7292   22.7838 H   0  0  0  0  0  0  0  0  0  0  0  0
   20.7930   20.1979   22.2584 C   0  0  0  0  0  0  0  0  0  0  0  0
   20.3268   19.6848   21.4136 H   0  0  0  0  0  0  0  0  0  0  0  0
   20.4175   21.2239   22.2879 H   0  0  0  0  0  0  0  0  0  0  0  0
   20.4288   19.4753   23.5680 C   0  0  0  0  0  0  0  0  0  0  0  0
   20.8263   18.4530   23.5345 H   0  0  0  0  0  0  0  0  0  0  0  0
   20.9117   19.9843   24.4127 H   0  0  0  0  0  0  0  0  0  0  0  0
   18.8978   19.4426   23.7861 C   0  0  0  0  0  0  0  0  0  0  0  0
   18.4166   18.8996   22.9617 H   0  0  0  0  0  0  0  0  0  0  0  0
   18.5088   20.4693   23.7380 H   0  0  0  0  0  0  0  0  0  0  0  0
   18.4770   18.8244   25.1447 C   0  0  0  0  0  0  0  0  0  0  0  0
   18.8742   19.4465   25.9587 H   0  0  0  0  0  0  0  0  0  0  0  0
   17.3831   18.8786   25.2325 H   0  0  0  0  0  0  0  0  0  0  0  0
   18.9253   17.3580   25.3730 C   0  0  0  0  0  0  0  0  0  0  0  0
   18.5716   17.0346   26.3619 H   0  0  0  0  0  0  0  0  0  0  0  0
   20.0212   17.2974   25.4128 H   0  0  0  0  0  0  0  0  0  0  0  0
   18.3867   16.3769   24.3070 C   0  0  0  0  0  0  0  0  0  0  0  0
   17.2928   16.4333   24.2356 H   0  0  0  0  0  0  0  0  0  0  0  0
   18.6534   15.3440   24.5654 H   0  0  0  0  0  0  0  0  0  0  0  0
   18.8077   16.5883   23.3162 H   0  0  0  0  0  0  0  0  0  0  0  0
   22.5570   20.9841   20.6917 C   0  0  0  0  0  0  0  0  0  0  0  0
   22.1605   21.9997   20.7563 H   0  0  0  0  0  0  0  0  0  0  0  0
   23.6349   21.0192   20.5184 H   0  0  0  0  0  0  0  0  0  0  0  0
   22.0694   20.4476   19.8747 H   0  0  0  0  0  0  0  0  0  0  0  0
  1  2  1  0  0  0  0
  1  3  1  0  0  0  0
  1  4  1  0  0  0  0
  4  5  1  0  0  0  0
  4  6  1  0  0  0  0
  4  7  1  0  0  0  0
  7  8  1  0  0  0  0
  7  9  1  0  0  0  0
  7 10  1  0  0  0  0
 10 11  1  0  0  0  0
 10 12  1  0  0  0  0
 10 13  1  0  0  0  0
 13 14  1  0  0  0  0
 13 15  1  0  0  0  0
 13 16  1  0  0  0  0
 16 17  1  0  0  0  0
 16 18  1  0  0  0  0
 16 19  1  0  0  0  0
 19 20  1  0  0  0  0
 19 21  1  0  0  0  0
 19 22  1  0  0  0  0
  1 23  1  0  0  0  0
 23 24  1  0  0  0  0
 23 25  1  0  0  0  0
 23 26  1  0  0  0  0
M  END
> <VConfSearch Rank>
495

> <Conf_Id>
30

> <Delta U+W>
0.910

> <U+W>
22.752

> <U>
71.870

> <W>
-49.118

> <W(PB)>
-51.409

> <W(SA)>
2.290

> <Valence>
2.682

> <Coulomb>
68.933

> <VdW>
0.255

> <VdW6>
-6.833

> <VdW12>
7.088

> <Bond>
0.205

> <Angle>
1.003

> <Pdih>
1.473

> <Idih>
0.000

> <Tether>
0.000

$$$$
VeraChem MOL file


 26 25  0  0  0  0  0  0  0  0999 V2000     
   17.6432   19.6034   21.8795 N   0  3  0  0  0  0  0  0  0  0  0  0
   16.9283   19.2020   22.5060 H   0  0  0  0  0  0  0  0  0  0  0  0
   17.9400   18.8269   21.2682 H   0  0  0  0  0  0  0  0  0  0  0  0
   18.8200   20.1123   22.6876 C   0  0  0  0  0  0  0  0  0  0  0  0
   18.4625   20.9249   23.3251 H   0  0  0  0  0  0  0  0  0  0  0  0
   19.5550   20.5205   21.9892 H   0  0  0  0  0  0  0  0  0  0  0  0
   19.4787   19.0247   23.5553 C   0  0  0  0  0  0  0  0  0  0  0  0
   18.7334   18.6061   24.2446 H   0  0  0  0  0  0  0  0  0  0  0  0
   19.8170   18.2066   22.9070 H   0  0  0  0  0  0  0  0  0  0  0  0
   20.6715   19.5921   24.3601 C   0  0  0  0  0  0  0  0  0  0  0  0
   20.3287   20.4588   24.9424 H   0  0  0  0  0  0  0  0  0  0  0  0
   21.4357   19.9759   23.6710 H   0  0  0  0  0  0  0  0  0  0  0  0
   21.3053   18.5677   25.3368 C   0  0  0  0  0  0  0  0  0  0  0  0
   22.1128   19.0641   25.8926 H   0  0  0  0  0  0  0  0  0  0  0  0
   20.5570   18.2803   26.0883 H   0  0  0  0  0  0  0  0  0  0  0  0
   21.8684   17.2831   24.6765 C   0  0  0  0  0  0  0  0  0  0  0  0
   21.0558   16.7039   24.2180 H   0  0  0  0  0  0  0  0  0  0  0  0
   22.2868   16.6404   25.4637 H   0  0  0  0  0  0  0  0  0  0  0  0
   22.9675   17.5622   23.6263 C   0  0  0  0  0  0  0  0  0  0  0  0
   22.5679   18.1029   22.7594 H   0  0  0  0  0  0  0  0  0  0  0  0
   23.3964   16.6209   23.2590 H   0  0  0  0  0  0  0  0  0  0  0  0
   23.7832   18.1571   24.0571 H   0  0  0  0  0  0  0  0  0  0  0  0
   17.0530   20.7378   21.0533 C   0  0  0  0  0  0  0  0  0  0  0  0
   16.2066   20.3581   20.4765 H   0  0  0  0  0  0  0  0  0  0  0  0
   16.7162   21.5323   21.7229 H   0  0  0  0  0  0  0  0  0  0  0  0
   17.8175   21.1241   20.3757 H   0  0  0  0  0  0  0  0  0  0  0  0
  1  2  1  0  0  0  0
  1  3  1  0  0  0  0
  1  4  1  0  0  0  0
  4  5  1  0  0  0  0
  4  6  1  0  0  0  0
  4  7  1  0  0  0  0
  7  8  1  0  0  0  0
  7  9  1  0  0  0  0
  7 10  1  0  0  0  0
 10 11  1  0  0  0  0
 10 12  1  0  0  0  0
 10 13  1  0  0  0  0
 13 14  1  0  0  0  0
 13 15  1  0  0  0  0
 13 16  1  0  0  0  0
 16 17  1  0  0  0  0
 16 18  1  0  0  0  0
 16 19  1  0  0  0  0
 19 20  1  0  0  0  0
 19 21  1  0  0  0  0
 19 22  1  0  0  0  0
  1 23  1  0  0  0  0
 23 24  1  0  0  0  0
 23 25  1  0  0  0  0
 23 26  1  0  0  0  0
M  END
> <VConfSearch Rank>
496

> <Conf_Id>
29

> <Delta U+W>
0.886

> <U+W>
22.729

> <U>
71.870

> <W>
-49.141

> <W(PB)>
-51.404

> <W(SA)>
2.262

> <Valence>
2.682

> <Coulomb>
68.933

> <VdW>
0.255

> <VdW6>
-6.833

> <VdW12>
7.088

> <Bond>
0.205

> <Angle>
1.003

> <Pdih>
1.473

> <Idih>
0.000

> <Tether>
0.000

$$$$
VeraChem MOL file


 26 25  0  0  0  0  0  0  0  0999 V2000     
   21.1313   19.9665   21.0946 N   0  3  0  0  0  0  0  0  0  0  0  0
   21.2701   20.9873   21.0351 H   0  0  0  0  0  0  0  0  0  0  0  0
   20.2193   19.7867   20.6468 H   0  0  0  0  0  0  0  0  0  0  0  0
   21.0982   19.5273   22.5445 C   0  0  0  0  0  0  0  0  0  0  0  0
   22.0746   19.7458   22.9841 H   0  0  0  0  0  0  0  0  0  0  0  0
   20.9467   18.4453   22.5615 H   0  0  0  0  0  0  0  0  0  0  0  0
   19.9937   20.2191   23.3658 C   0  0  0  0  0  0  0  0  0  0  0  0
   20.1341   21.3068   23.3128 H   0  0  0  0  0  0  0  0  0  0  0  0
   19.0140   20.0126   22.9164 H   0  0  0  0  0  0  0  0  0  0  0  0
   19.9958   19.7863   24.8530 C   0  0  0  0  0  0  0  0  0  0  0  0
   19.2014   20.3264   25.3853 H   0  0  0  0  0  0  0  0  0  0  0  0
   20.9369   20.1133   25.3163 H   0  0  0  0  0  0  0  0  0  0  0  0
   19.8329   18.2601   25.0877 C   0  0  0  0  0  0  0  0  0  0  0  0
   20.7161   17.7349   24.6996 H   0  0  0  0  0  0  0  0  0  0  0  0
   19.8297   18.0703   26.1699 H   0  0  0  0  0  0  0  0  0  0  0  0
   18.5610   17.6291   24.4659 C   0  0  0  0  0  0  0  0  0  0  0  0
   18.5612   16.5523   24.6855 H   0  0  0  0  0  0  0  0  0  0  0  0
   18.5919   17.7120   23.3712 H   0  0  0  0  0  0  0  0  0  0  0  0
   17.2476   18.2451   24.9991 C   0  0  0  0  0  0  0  0  0  0  0  0
   16.3793   17.7091   24.5947 H   0  0  0  0  0  0  0  0  0  0  0  0
   17.1500   19.2986   24.7090 H   0  0  0  0  0  0  0  0  0  0  0  0
   17.1994   18.1842   26.0941 H   0  0  0  0  0  0  0  0  0  0  0  0
   22.2424   19.2326   20.3567 C   0  0  0  0  0  0  0  0  0  0  0  0
   22.2557   19.5581   19.3141 H   0  0  0  0  0  0  0  0  0  0  0  0
   23.2002   19.4642   20.8277 H   0  0  0  0  0  0  0  0  0  0  0  0
   22.0564   18.1574   20.4050 H   0  0  0  0  0  0  0  0  0  0  0  0
  1  2  1  0  0  0  0
  1  3  1  0  0  0  0
  1  4  1  0  0  0  0
  4  5  1  0  0  0  0
  4  6  1  0  0  0  0
  4  7  1  0  0  0  0
  7  8  1  0  0  0  0
  7  9  1  0  0  0  0
  7 10  1  0  0  0  0
 10 11  1  0  0  0  0
 10 12  1  0  0  0  0
 10 13  1  0  0  0  0
 13 14  1  0  0  0  0
 13 15  1  0  0  0  0
 13 16  1  0  0  0  0
 16 17  1  0  0  0  0
 16 18  1  0  0  0  0
 16 19  1  0  0  0  0
 19 20  1  0  0  0  0
 19 21  1  0  0  0  0
 19 22  1  0  0  0  0
  1 23  1  0  0  0  0
 23 24  1  0  0  0  0
 23 25  1  0  0  0  0
 23 26  1  0  0  0  0
M  END
> <VConfSearch Rank>
497

> <Conf_Id>
82

> <Delta U+W>
1.026

> <U+W>
22.868

> <U>
72.455

> <W>
-49.586

> <W(PB)>
-51.821

> <W(SA)>
2.234

> <Valence>
2.908

> <Coulomb>
69.435

> <VdW>
0.112

> <VdW6>
-7.765

> <VdW12>
7.877

> <Bond>
0.233

> <Angle>
1.170

> <Pdih>
1.506

> <Idih>
0.000

> <Tether>
0.000

$$$$
VeraChem MOL file


 26 25  0  0  0  0  0  0  0  0999 V2000     
   21.9878   17.4965   24.2334 N   0  3  0  0  0  0  0  0  0  0  0  0
   22.5974   18.3282   24.1984 H   0  0  0  0  0  0  0  0  0  0  0  0
   22.3930   16.8302   23.5576 H   0  0  0  0  0  0  0  0  0  0  0  0
   20.5764   17.8644   23.8224 C   0  0  0  0  0  0  0  0  0  0  0  0
   20.1881   18.5710   24.5598 H   0  0  0  0  0  0  0  0  0  0  0  0
   19.9682   16.9572   23.8602 H   0  0  0  0  0  0  0  0  0  0  0  0
   20.4939   18.4853   22.4149 C   0  0  0  0  0  0  0  0  0  0  0  0
   21.1164   19.3881   22.3715 H   0  0  0  0  0  0  0  0  0  0  0  0
   20.9190   17.7823   21.6863 H   0  0  0  0  0  0  0  0  0  0  0  0
   19.0415   18.8229   21.9954 C   0  0  0  0  0  0  0  0  0  0  0  0
   18.4666   17.8892   21.9247 H   0  0  0  0  0  0  0  0  0  0  0  0
   19.0492   19.2426   20.9806 H   0  0  0  0  0  0  0  0  0  0  0  0
   18.2956   19.7919   22.9523 C   0  0  0  0  0  0  0  0  0  0  0  0
   17.2893   19.9750   22.5511 H   0  0  0  0  0  0  0  0  0  0  0  0
   18.1407   19.3000   23.9220 H   0  0  0  0  0  0  0  0  0  0  0  0
   18.9952   21.1549   23.1877 C   0  0  0  0  0  0  0  0  0  0  0  0
   19.9617   21.0048   23.6871 H   0  0  0  0  0  0  0  0  0  0  0  0
   18.3853   21.7456   23.8854 H   0  0  0  0  0  0  0  0  0  0  0  0
   19.1989   21.9715   21.8913 C   0  0  0  0  0  0  0  0  0  0  0  0
   19.8918   21.4701   21.2043 H   0  0  0  0  0  0  0  0  0  0  0  0
   19.6182   22.9596   22.1209 H   0  0  0  0  0  0  0  0  0  0  0  0
   18.2463   22.1245   21.3678 H   0  0  0  0  0  0  0  0  0  0  0  0
   21.9799   16.8988   25.6335 C   0  0  0  0  0  0  0  0  0  0  0  0
   21.3557   16.0025   25.6378 H   0  0  0  0  0  0  0  0  0  0  0  0
   23.0019   16.6378   25.9173 H   0  0  0  0  0  0  0  0  0  0  0  0
   21.5783   17.6331   26.3353 H   0  0  0  0  0  0  0  0  0  0  0  0
  1  2  1  0  0  0  0
  1  3  1  0  0  0  0
  1  4  1  0  0  0  0
  4  5  1  0  0  0  0
  4  6  1  0  0  0  0
  4  7  1  0  0  0  0
  7  8  1  0  0  0  0
  7  9  1  0  0  0  0
  7 10  1  0  0  0  0
 10 11  1  0  0  0  0
 10 12  1  0  0  0  0
 10 13  1  0  0  0  0
 13 14  1  0  0  0  0
 13 15  1  0  0  0  0
 13 16  1  0  0  0  0
 16 17  1  0  0  0  0
 16 18  1  0  0  0  0
 16 19  1  0  0  0  0
 19 20  1  0  0  0  0
 19 21  1  0  0  0  0
 19 22  1  0  0  0  0
  1 23  1  0  0  0  0
 23 24  1  0  0  0  0
 23 25  1  0  0  0  0
 23 26  1  0  0  0  0
M  END
> <VConfSearch Rank>
498

> <Conf_Id>
71

> <Delta U+W>
1.096

> <U+W>
22.938

> <U>
72.455

> <W>
-49.517

> <W(PB)>
-51.795

> <W(SA)>
2.278

> <Valence>
2.908

> <Coulomb>
69.435

> <VdW>
0.112

> <VdW6>
-7.766

> <VdW12>
7.877

> <Bond>
0.233

> <Angle>
1.170

> <Pdih>
1.506

> <Idih>
0.000

> <Tether>
0.000

$$$$
VeraChem MOL file


 26 25  0  0  0  0  0  0  0  0999 V2000     
   18.5120   18.0195   24.8662 N   0  3  0  0  0  0  0  0  0  0  0  0
   18.2153   18.7713   24.2262 H   0  0  0  0  0  0  0  0  0  0  0  0
   18.0829   18.2536   25.7755 H   0  0  0  0  0  0  0  0  0  0  0  0
   20.0265   18.0202   25.0011 C   0  0  0  0  0  0  0  0  0  0  0  0
   20.3003   17.2003   25.6699 H   0  0  0  0  0  0  0  0  0  0  0  0
   20.3105   18.9565   25.4874 H   0  0  0  0  0  0  0  0  0  0  0  0
   20.8039   17.8847   23.6721 C   0  0  0  0  0  0  0  0  0  0  0  0
   21.8795   17.9050   23.8918 H   0  0  0  0  0  0  0  0  0  0  0  0
   20.6049   16.8982   23.2337 H   0  0  0  0  0  0  0  0  0  0  0  0
   20.4752   18.9828   22.6293 C   0  0  0  0  0  0  0  0  0  0  0  0
   19.4170   18.9199   22.3427 H   0  0  0  0  0  0  0  0  0  0  0  0
   21.0509   18.7704   21.7192 H   0  0  0  0  0  0  0  0  0  0  0  0
   20.8014   20.4142   23.1266 C   0  0  0  0  0  0  0  0  0  0  0  0
   20.2494   20.6174   24.0535 H   0  0  0  0  0  0  0  0  0  0  0  0
   21.8680   20.4832   23.3813 H   0  0  0  0  0  0  0  0  0  0  0  0
   20.4432   21.5186   22.1025 C   0  0  0  0  0  0  0  0  0  0  0  0
   20.5975   22.4991   22.5744 H   0  0  0  0  0  0  0  0  0  0  0  0
   19.3743   21.4630   21.8535 H   0  0  0  0  0  0  0  0  0  0  0  0
   21.2832   21.4543   20.8063 C   0  0  0  0  0  0  0  0  0  0  0  0
   21.0689   20.5457   20.2304 H   0  0  0  0  0  0  0  0  0  0  0  0
   22.3576   21.4751   21.0302 H   0  0  0  0  0  0  0  0  0  0  0  0
   21.0588   22.3132   20.1606 H   0  0  0  0  0  0  0  0  0  0  0  0
   18.0022   16.6663   24.3842 C   0  0  0  0  0  0  0  0  0  0  0  0
   16.9117   16.6943   24.3286 H   0  0  0  0  0  0  0  0  0  0  0  0
   18.4152   16.4564   23.3955 H   0  0  0  0  0  0  0  0  0  0  0  0
   18.3158   15.8933   25.0890 H   0  0  0  0  0  0  0  0  0  0  0  0
  1  2  1  0  0  0  0
  1  3  1  0  0  0  0
  1  4  1  0  0  0  0
  4  5  1  0  0  0  0
  4  6  1  0  0  0  0
  4  7  1  0  0  0  0
  7  8  1  0  0  0  0
  7  9  1  0  0  0  0
  7 10  1  0  0  0  0
 10 11  1  0  0  0  0
 10 12  1  0  0  0  0
 10 13  1  0  0  0  0
 13 14  1  0  0  0  0
 13 15  1  0  0  0  0
 13 16  1  0  0  0  0
 16 17  1  0  0  0  0
 16 18  1  0  0  0  0
 16 19  1  0  0  0  0
 19 20  1  0  0  0  0
 19 21  1  0  0  0  0
 19 22  1  0  0  0  0
  1 23  1  0  0  0  0
 23 24  1  0  0  0  0
 23 25  1  0  0  0  0
 23 26  1  0  0  0  0
M  END
> <VConfSearch Rank>
499

> <Conf_Id>
84

> <Delta U+W>
1.456

> <U+W>
23.298

> <U>
73.042

> <W>
-49.744

> <W(PB)>
-51.966

> <W(SA)>
2.222

> <Valence>
2.938

> <Coulomb>
69.625

> <VdW>
0.478

> <VdW6>
-8.182

> <VdW12>
8.660

> <Bond>
0.253

> <Angle>
1.038

> <Pdih>
1.647

> <Idih>
0.000

> <Tether>
0.000

$$$$
VeraChem MOL file


 26 25  0  0  0  0  0  0  0  0999 V2000     
   22.2185   18.5437   22.8316 N   0  3  0  0  0  0  0  0  0  0  0  0
   21.4442   18.4368   22.1592 H   0  0  0  0  0  0  0  0  0  0  0  0
   22.6003   17.5948   22.9679 H   0  0  0  0  0  0  0  0  0  0  0  0
   21.6921   19.0876   24.1453 C   0  0  0  0  0  0  0  0  0  0  0  0
   21.3014   20.0912   23.9618 H   0  0  0  0  0  0  0  0  0  0  0  0
   22.5387   19.1734   24.8312 H   0  0  0  0  0  0  0  0  0  0  0  0
   20.5977   18.2116   24.7897 C   0  0  0  0  0  0  0  0  0  0  0  0
   21.0167   17.2226   25.0178 H   0  0  0  0  0  0  0  0  0  0  0  0
   20.3166   18.6541   25.7546 H   0  0  0  0  0  0  0  0  0  0  0  0
   19.3287   18.0422   23.9168 C   0  0  0  0  0  0  0  0  0  0  0  0
   18.6196   17.3970   24.4538 H   0  0  0  0  0  0  0  0  0  0  0  0
   19.5805   17.5105   22.9894 H   0  0  0  0  0  0  0  0  0  0  0  0
   18.6369   19.3850   23.5791 C   0  0  0  0  0  0  0  0  0  0  0  0
   18.4085   19.9240   24.5090 H   0  0  0  0  0  0  0  0  0  0  0  0
   19.3170   20.0240   23.0002 H   0  0  0  0  0  0  0  0  0  0  0  0
   17.3349   19.1737   22.7747 C   0  0  0  0  0  0  0  0  0  0  0  0
   16.6413   18.5436   23.3491 H   0  0  0  0  0  0  0  0  0  0  0  0
   17.5569   18.6330   21.8440 H   0  0  0  0  0  0  0  0  0  0  0  0
   16.6475   20.5138   22.4364 C   0  0  0  0  0  0  0  0  0  0  0  0
   16.3822   21.0631   23.3491 H   0  0  0  0  0  0  0  0  0  0  0  0
   15.7251   20.3433   21.8661 H   0  0  0  0  0  0  0  0  0  0  0  0
   17.3039   21.1529   21.8315 H   0  0  0  0  0  0  0  0  0  0  0  0
   23.2854   19.4756   22.2745 C   0  0  0  0  0  0  0  0  0  0  0  0
   24.1072   19.5488   22.9901 H   0  0  0  0  0  0  0  0  0  0  0  0
   23.6546   19.0727   21.3287 H   0  0  0  0  0  0  0  0  0  0  0  0
   22.8491   20.4632   22.1096 H   0  0  0  0  0  0  0  0  0  0  0  0
  1  2  1  0  0  0  0
  1  3  1  0  0  0  0
  1  4  1  0  0  0  0
  4  5  1  0  0  0  0
  4  6  1  0  0  0  0
  4  7  1  0  0  0  0
  7  8  1  0  0  0  0
  7  9  1  0  0  0  0
  7 10  1  0  0  0  0
 10 11  1  0  0  0  0
 10 12  1  0  0  0  0
 10 13  1  0  0  0  0
 13 14  1  0  0  0  0
 13 15  1  0  0  0  0
 13 16  1  0  0  0  0
 16 17  1  0  0  0  0
 16 18  1  0  0  0  0
 16 19  1  0  0  0  0
 19 20  1  0  0  0  0
 19 21  1  0  0  0  0
 19 22  1  0  0  0  0
  1 23  1  0  0  0  0
 23 24  1  0  0  0  0
 23 25  1  0  0  0  0
 23 26  1  0  0  0  0
M  END
> <VConfSearch Rank>
500

> <Conf_Id>
73

> <Delta U+W>
0.884

> <U+W>
22.726

> <U>
71.905

> <W>
-49.179

> <W(PB)>
-51.494

> <W(SA)>
2.315

> <Valence>
2.125

> <Coulomb>
69.686

> <VdW>
0.093

> <VdW6>
-6.766

> <VdW12>
6.859

> <Bond>
0.169

> <Angle>
0.621

> <Pdih>
1.336

> <Idih>
0.000

> <Tether>
0.000

$$$$
VeraChem MOL file


 26 25  0  0  0  0  0  0  0  0999 V2000     
   19.3308   17.1021   25.7413 N   0  3  0  0  0  0  0  0  0  0  0  0
   19.9930   17.5233   26.4115 H   0  0  0  0  0  0  0  0  0  0  0  0
   19.8170   16.2771   25.3569 H   0  0  0  0  0  0  0  0  0  0  0  0
   19.0125   18.0852   24.6327 C   0  0  0  0  0  0  0  0  0  0  0  0
   18.5078   18.9446   25.0813 H   0  0  0  0  0  0  0  0  0  0  0  0
   18.3177   17.5993   23.9430 H   0  0  0  0  0  0  0  0  0  0  0  0
   20.2588   18.5599   23.8636 C   0  0  0  0  0  0  0  0  0  0  0  0
   20.9613   19.0325   24.5630 H   0  0  0  0  0  0  0  0  0  0  0  0
   20.7718   17.6918   23.4285 H   0  0  0  0  0  0  0  0  0  0  0  0
   19.8865   19.5586   22.7454 C   0  0  0  0  0  0  0  0  0  0  0  0
   19.3688   20.4231   23.1841 H   0  0  0  0  0  0  0  0  0  0  0  0
   19.1793   19.0839   22.0510 H   0  0  0  0  0  0  0  0  0  0  0  0
   21.1306   20.0422   21.9658 C   0  0  0  0  0  0  0  0  0  0  0  0
   21.8379   20.5170   22.6599 H   0  0  0  0  0  0  0  0  0  0  0  0
   21.6484   19.1780   21.5270 H   0  0  0  0  0  0  0  0  0  0  0  0
   20.7580   21.0411   20.8475 C   0  0  0  0  0  0  0  0  0  0  0  0
   20.2417   21.9088   21.2817 H   0  0  0  0  0  0  0  0  0  0  0  0
   20.0524   20.5699   20.1488 H   0  0  0  0  0  0  0  0  0  0  0  0
   22.0027   21.5218   20.0712 C   0  0  0  0  0  0  0  0  0  0  0  0
   21.7180   22.2298   19.2821 H   0  0  0  0  0  0  0  0  0  0  0  0
   22.5217   20.6791   19.5962 H   0  0  0  0  0  0  0  0  0  0  0  0
   22.7126   22.0285   20.7379 H   0  0  0  0  0  0  0  0  0  0  0  0
   18.0485   16.6852   26.4482 C   0  0  0  0  0  0  0  0  0  0  0  0
   17.3780   16.2128   25.7268 H   0  0  0  0  0  0  0  0  0  0  0  0
   18.2918   15.9775   27.2439 H   0  0  0  0  0  0  0  0  0  0  0  0
   17.5696   17.5694   26.8746 H   0  0  0  0  0  0  0  0  0  0  0  0
  1  2  1  0  0  0  0
  1  3  1  0  0  0  0
  1  4  1  0  0  0  0
  4  5  1  0  0  0  0
  4  6  1  0  0  0  0
  4  7  1  0  0  0  0
  7  8  1  0  0  0  0
  7  9  1  0  0  0  0
  7 10  1  0  0  0  0
 10 11  1  0  0  0  0
 10 12  1  0  0  0  0
 10 13  1  0  0  0  0
 13 14  1  0  0  0  0
 13 15  1  0  0  0  0
 13 16  1  0  0  0  0
 16 17  1  0  0  0  0
 16 18  1  0  0  0  0
 16 19  1  0  0  0  0
 19 20  1  0  0  0  0
 19 21  1  0  0  0  0
 19 22  1  0  0  0  0
  1 23  1  0  0  0  0
 23 24  1  0  0  0  0
 23 25  1  0  0  0  0
 23 26  1  0  0  0  0
M  END
> <VConfSearch Rank>
501

> <Conf_Id>
11

> <Delta U+W>
0.000

> <U+W>
21.842

> <U>
70.357

> <W>
-48.515

> <W(PB)>
-50.856

> <W(SA)>
2.341

> <Valence>
1.714

> <Coulomb>
68.480

> <VdW>
0.163

> <VdW6>
-5.268

> <VdW12>
5.431

> <Bond>
0.126

> <Angle>
0.350

> <Pdih>
1.238

> <Idih>
0.000

> <Tether>
0.000

$$$$
VeraChem MOL file


 26 25  0  0  0  0  0  0  0  0999 V2000     
   16.8135   19.3992   24.3373 N   0  3  0  0  0  0  0  0  0  0  0  0
   16.2516   20.0764   24.8774 H   0  0  0  0  0  0  0  0  0  0  0  0
   16.8326   18.5465   24.9179 H   0  0  0  0  0  0  0  0  0  0  0  0
   18.2213   19.9403   24.1518 C   0  0  0  0  0  0  0  0  0  0  0  0
   18.5743   20.2693   25.1325 H   0  0  0  0  0  0  0  0  0  0  0  0
   18.1621   20.8165   23.5013 H   0  0  0  0  0  0  0  0  0  0  0  0
   19.2267   18.9241   23.5728 C   0  0  0  0  0  0  0  0  0  0  0  0
   19.2425   18.0267   24.2054 H   0  0  0  0  0  0  0  0  0  0  0  0
   18.9011   18.6079   22.5734 H   0  0  0  0  0  0  0  0  0  0  0  0
   20.6475   19.5242   23.4857 C   0  0  0  0  0  0  0  0  0  0  0  0
   20.9726   19.8425   24.4860 H   0  0  0  0  0  0  0  0  0  0  0  0
   20.6260   20.4254   22.8571 H   0  0  0  0  0  0  0  0  0  0  0  0
   21.6659   18.5150   22.9079 C   0  0  0  0  0  0  0  0  0  0  0  0
   21.6872   17.6137   23.5362 H   0  0  0  0  0  0  0  0  0  0  0  0
   21.3411   18.1968   21.9075 H   0  0  0  0  0  0  0  0  0  0  0  0
   23.0868   19.1155   22.8209 C   0  0  0  0  0  0  0  0  0  0  0  0
   23.4174   19.4331   23.8198 H   0  0  0  0  0  0  0  0  0  0  0  0
   23.0712   20.0163   22.1913 H   0  0  0  0  0  0  0  0  0  0  0  0
   24.1009   18.1050   22.2435 C   0  0  0  0  0  0  0  0  0  0  0  0
   25.1032   18.5495   22.1896 H   0  0  0  0  0  0  0  0  0  0  0  0
   23.8154   17.7943   21.2300 H   0  0  0  0  0  0  0  0  0  0  0  0
   24.1643   17.2067   22.8713 H   0  0  0  0  0  0  0  0  0  0  0  0
   16.1447   19.1264   22.9947 C   0  0  0  0  0  0  0  0  0  0  0  0
   16.7093   18.3616   22.4578 H   0  0  0  0  0  0  0  0  0  0  0  0
   15.1250   18.7753   23.1684 H   0  0  0  0  0  0  0  0  0  0  0  0
   16.1222   20.0492   22.4110 H   0  0  0  0  0  0  0  0  0  0  0  0
  1  2  1  0  0  0  0
  1  3  1  0  0  0  0
  1  4  1  0  0  0  0
  4  5  1  0  0  0  0
  4  6  1  0  0  0  0
  4  7  1  0  0  0  0
  7  8  1  0  0  0  0
  7  9  1  0  0  0  0
  7 10  1  0  0  0  0
 10 11  1  0  0  0  0
 10 12  1  0  0  0  0
 10 13  1  0  0  0  0
 13 14  1  0  0  0  0
 13 15  1  0  0  0  0
 13 16  1  0  0  0  0
 16 17  1  0  0  0  0
 16 18  1  0  0  0  0
 16 19  1  0  0  0  0
 19 20  1  0  0  0  0
 19 21  1  0  0  0  0
 19 22  1  0  0  0  0
  1 23  1  0  0  0  0
 23 24  1  0  0  0  0
 23 25  1  0  0  0  0
 23 26  1  0  0  0  0
M  END
> <VConfSearch Rank>
502

> <Conf_Id>
102

> <Delta U+W>
0.121

> <U+W>
21.963

> <U>
70.745

> <W>
-48.782

> <W(PB)>
-51.111

> <W(SA)>
2.329

> <Valence>
1.993

> <Coulomb>
68.323

> <VdW>
0.429

> <VdW6>
-5.973

> <VdW12>
6.402

> <Bond>
0.161

> <Angle>
0.472

> <Pdih>
1.360

> <Idih>
0.000

> <Tether>
0.000

$$$$
VeraChem MOL file


 26 25  0  0  0  0  0  0  0  0999 V2000     
   23.0615   20.6971   23.4210 N   0  3  0  0  0  0  0  0  0  0  0  0
   23.3189   20.4855   22.4445 H   0  0  0  0  0  0  0  0  0  0  0  0
   23.9477   20.6415   23.9478 H   0  0  0  0  0  0  0  0  0  0  0  0
   22.0913   19.6524   23.9468 C   0  0  0  0  0  0  0  0  0  0  0  0
   21.8140   19.9333   24.9659 H   0  0  0  0  0  0  0  0  0  0  0  0
   22.6303   18.7026   23.9918 H   0  0  0  0  0  0  0  0  0  0  0  0
   20.8224   19.4681   23.0898 C   0  0  0  0  0  0  0  0  0  0  0  0
   20.2540   20.4067   23.0613 H   0  0  0  0  0  0  0  0  0  0  0  0
   21.1117   19.2350   22.0565 H   0  0  0  0  0  0  0  0  0  0  0  0
   19.9258   18.3397   23.6459 C   0  0  0  0  0  0  0  0  0  0  0  0
   19.6440   18.5735   24.6821 H   0  0  0  0  0  0  0  0  0  0  0  0
   20.4955   17.4004   23.6761 H   0  0  0  0  0  0  0  0  0  0  0  0
   18.6504   18.1436   22.7949 C   0  0  0  0  0  0  0  0  0  0  0  0
   18.0804   19.0826   22.7649 H   0  0  0  0  0  0  0  0  0  0  0  0
   18.9321   17.9101   21.7588 H   0  0  0  0  0  0  0  0  0  0  0  0
   17.7539   17.0149   23.3514 C   0  0  0  0  0  0  0  0  0  0  0  0
   17.4674   17.2450   24.3872 H   0  0  0  0  0  0  0  0  0  0  0  0
   18.3188   16.0726   23.3809 H   0  0  0  0  0  0  0  0  0  0  0  0
   16.4812   16.8222   22.4992 C   0  0  0  0  0  0  0  0  0  0  0  0
   15.8770   17.7385   22.4789 H   0  0  0  0  0  0  0  0  0  0  0  0
   15.8580   16.0171   22.9097 H   0  0  0  0  0  0  0  0  0  0  0  0
   16.7351   16.5571   21.4646 H   0  0  0  0  0  0  0  0  0  0  0  0
   22.4783   22.1010   23.5363 C   0  0  0  0  0  0  0  0  0  0  0  0
   22.2334   22.3030   24.5813 H   0  0  0  0  0  0  0  0  0  0  0  0
   23.2169   22.8246   23.1843 H   0  0  0  0  0  0  0  0  0  0  0  0
   21.5769   22.1698   22.9241 H   0  0  0  0  0  0  0  0  0  0  0  0
  1  2  1  0  0  0  0
  1  3  1  0  0  0  0
  1  4  1  0  0  0  0
  4  5  1  0  0  0  0
  4  6  1  0  0  0  0
  4  7  1  0  0  0  0
  7  8  1  0  0  0  0
  7  9  1  0  0  0  0
  7 10  1  0  0  0  0
 10 11  1  0  0  0  0
 10 12  1  0  0  0  0
 10 13  1  0  0  0  0
 13 14  1  0  0  0  0
 13 15  1  0  0  0  0
 13 16  1  0  0  0  0
 16 17  1  0  0  0  0
 16 18  1  0  0  0  0
 16 19  1  0  0  0  0
 19 20  1  0  0  0  0
 19 21  1  0  0  0  0
 19 22  1  0  0  0  0
  1 23  1  0  0  0  0
 23 24  1  0  0  0  0
 23 25  1  0  0  0  0
 23 26  1  0  0  0  0
M  END
> <VConfSearch Rank>
503

> <Conf_Id>
37

> <Delta U+W>
0.125

> <U+W>
21.967

> <U>
70.745

> <W>
-48.778

> <W(PB)>
-51.115

> <W(SA)>
2.337

> <Valence>
1.993

> <Coulomb>
68.323

> <VdW>
0.429

> <VdW6>
-5.973

> <VdW12>
6.403

> <Bond>
0.161

> <Angle>
0.472

> <Pdih>
1.360

> <Idih>
0.000

> <Tether>
0.000

$$$$
VeraChem MOL file


 26 25  0  0  0  0  0  0  0  0999 V2000     
   22.4013   17.3377   24.0235 N   0  3  0  0  0  0  0  0  0  0  0  0
   23.2151   17.9156   24.2852 H   0  0  0  0  0  0  0  0  0  0  0  0
   22.6022   16.9964   23.0706 H   0  0  0  0  0  0  0  0  0  0  0  0
   21.1410   18.1791   24.0227 C   0  0  0  0  0  0  0  0  0  0  0  0
   20.9704   18.5285   25.0441 H   0  0  0  0  0  0  0  0  0  0  0  0
   20.3092   17.5313   23.7364 H   0  0  0  0  0  0  0  0  0  0  0  0
   21.2158   19.3863   23.0679 C   0  0  0  0  0  0  0  0  0  0  0  0
   22.0835   20.0027   23.3382 H   0  0  0  0  0  0  0  0  0  0  0  0
   21.3867   19.0360   22.0413 H   0  0  0  0  0  0  0  0  0  0  0  0
   19.9437   20.2659   23.1121 C   0  0  0  0  0  0  0  0  0  0  0  0
   20.1208   21.1567   22.4956 H   0  0  0  0  0  0  0  0  0  0  0  0
   19.7816   20.6243   24.1381 H   0  0  0  0  0  0  0  0  0  0  0  0
   18.6764   19.5285   22.6086 C   0  0  0  0  0  0  0  0  0  0  0  0
   18.8316   19.1883   21.5755 H   0  0  0  0  0  0  0  0  0  0  0  0
   18.5137   18.6246   23.2102 H   0  0  0  0  0  0  0  0  0  0  0  0
   17.3926   20.3908   22.6802 C   0  0  0  0  0  0  0  0  0  0  0  0
   17.2260   20.7248   23.7139 H   0  0  0  0  0  0  0  0  0  0  0  0
   16.5308   19.7608   22.4189 H   0  0  0  0  0  0  0  0  0  0  0  0
   17.4172   21.6143   21.7356 C   0  0  0  0  0  0  0  0  0  0  0  0
   18.1839   22.3399   22.0337 H   0  0  0  0  0  0  0  0  0  0  0  0
   16.4497   22.1324   21.7535 H   0  0  0  0  0  0  0  0  0  0  0  0
   17.6151   21.3098   20.6996 H   0  0  0  0  0  0  0  0  0  0  0  0
   22.2437   16.1697   24.9871 C   0  0  0  0  0  0  0  0  0  0  0  0
   21.3982   15.5548   24.6710 H   0  0  0  0  0  0  0  0  0  0  0  0
   23.1581   15.5721   24.9782 H   0  0  0  0  0  0  0  0  0  0  0  0
   22.0652   16.5556   25.9932 H   0  0  0  0  0  0  0  0  0  0  0  0
  1  2  1  0  0  0  0
  1  3  1  0  0  0  0
  1  4  1  0  0  0  0
  4  5  1  0  0  0  0
  4  6  1  0  0  0  0
  4  7  1  0  0  0  0
  7  8  1  0  0  0  0
  7  9  1  0  0  0  0
  7 10  1  0  0  0  0
 10 11  1  0  0  0  0
 10 12  1  0  0  0  0
 10 13  1  0  0  0  0
 13 14  1  0  0  0  0
 13 15  1  0  0  0  0
 13 16  1  0  0  0  0
 16 17  1  0  0  0  0
 16 18  1  0  0  0  0
 16 19  1  0  0  0  0
 19 20  1  0  0  0  0
 19 21  1  0  0  0  0
 19 22  1  0  0  0  0
  1 23  1  0  0  0  0
 23 24  1  0  0  0  0
 23 25  1  0  0  0  0
 23 26  1  0  0  0  0
M  END
> <VConfSearch Rank>
504

> <Conf_Id>
137

> <Delta U+W>
1.038

> <U+W>
22.880

> <U>
71.810

> <W>
-48.930

> <W(PB)>
-51.257

> <W(SA)>
2.327

> <Valence>
2.568

> <Coulomb>
68.877

> <VdW>
0.364

> <VdW6>
-6.470

> <VdW12>
6.834

> <Bond>
0.191

> <Angle>
0.752

> <Pdih>
1.626

> <Idih>
0.000

> <Tether>
0.000

$$$$
VeraChem MOL file


 26 25  0  0  0  0  0  0  0  0999 V2000     
   17.3118   20.0684   22.8825 N   0  3  0  0  0  0  0  0  0  0  0  0
   17.3805   20.4857   23.8238 H   0  0  0  0  0  0  0  0  0  0  0  0
   16.8587   19.1517   23.0210 H   0  0  0  0  0  0  0  0  0  0  0  0
   18.6944   19.8840   22.2898 C   0  0  0  0  0  0  0  0  0  0  0  0
   19.1414   20.8738   22.1672 H   0  0  0  0  0  0  0  0  0  0  0  0
   18.5777   19.4340   21.3007 H   0  0  0  0  0  0  0  0  0  0  0  0
   19.6152   19.0035   23.1541 C   0  0  0  0  0  0  0  0  0  0  0  0
   19.7094   19.4552   24.1495 H   0  0  0  0  0  0  0  0  0  0  0  0
   19.1545   18.0157   23.2879 H   0  0  0  0  0  0  0  0  0  0  0  0
   21.0111   18.8438   22.5066 C   0  0  0  0  0  0  0  0  0  0  0  0
   21.4930   19.8274   22.4173 H   0  0  0  0  0  0  0  0  0  0  0  0
   20.8875   18.4677   21.4814 H   0  0  0  0  0  0  0  0  0  0  0  0
   21.9447   17.8761   23.2751 C   0  0  0  0  0  0  0  0  0  0  0  0
   21.4707   16.8876   23.3490 H   0  0  0  0  0  0  0  0  0  0  0  0
   22.8607   17.7345   22.6849 H   0  0  0  0  0  0  0  0  0  0  0  0
   22.3298   18.3769   24.6876 C   0  0  0  0  0  0  0  0  0  0  0  0
   21.4360   18.4506   25.3212 H   0  0  0  0  0  0  0  0  0  0  0  0
   22.7566   19.3874   24.6197 H   0  0  0  0  0  0  0  0  0  0  0  0
   23.3482   17.4366   25.3670 C   0  0  0  0  0  0  0  0  0  0  0  0
   22.9385   16.4240   25.4763 H   0  0  0  0  0  0  0  0  0  0  0  0
   23.6079   17.8046   26.3680 H   0  0  0  0  0  0  0  0  0  0  0  0
   24.2751   17.3690   24.7826 H   0  0  0  0  0  0  0  0  0  0  0  0
   16.4695   20.9478   21.9687 C   0  0  0  0  0  0  0  0  0  0  0  0
   16.3834   20.4703   20.9902 H   0  0  0  0  0  0  0  0  0  0  0  0
   15.4768   21.0725   22.4070 H   0  0  0  0  0  0  0  0  0  0  0  0
   16.9515   21.9223   21.8640 H   0  0  0  0  0  0  0  0  0  0  0  0
  1  2  1  0  0  0  0
  1  3  1  0  0  0  0
  1  4  1  0  0  0  0
  4  5  1  0  0  0  0
  4  6  1  0  0  0  0
  4  7  1  0  0  0  0
  7  8  1  0  0  0  0
  7  9  1  0  0  0  0
  7 10  1  0  0  0  0
 10 11  1  0  0  0  0
 10 12  1  0  0  0  0
 10 13  1  0  0  0  0
 13 14  1  0  0  0  0
 13 15  1  0  0  0  0
 13 16  1  0  0  0  0
 16 17  1  0  0  0  0
 16 18  1  0  0  0  0
 16 19  1  0  0  0  0
 19 20  1  0  0  0  0
 19 21  1  0  0  0  0
 19 22  1  0  0  0  0
  1 23  1  0  0  0  0
 23 24  1  0  0  0  0
 23 25  1  0  0  0  0
 23 26  1  0  0  0  0
M  END
> <VConfSearch Rank>
505

> <Conf_Id>
35

> <Delta U+W>
0.670

> <U+W>
22.512

> <U>
71.348

> <W>
-48.837

> <W(PB)>
-51.150

> <W(SA)>
2.313

> <Valence>
2.262

> <Coulomb>
68.807

> <VdW>
0.280

> <VdW6>
-5.915

> <VdW12>
6.195

> <Bond>
0.164

> <Angle>
0.622

> <Pdih>
1.475

> <Idih>
0.000

> <Tether>
0.000

$$$$
VeraChem MOL file


 26 25  0  0  0  0  0  0  0  0999 V2000     
   17.3631   20.3648   23.5236 N   0  3  0  0  0  0  0  0  0  0  0  0
   17.4396   20.8896   22.6384 H   0  0  0  0  0  0  0  0  0  0  0  0
   17.7843   20.9744   24.2417 H   0  0  0  0  0  0  0  0  0  0  0  0
   18.1314   19.0620   23.4271 C   0  0  0  0  0  0  0  0  0  0  0  0
   17.6597   18.4513   22.6531 H   0  0  0  0  0  0  0  0  0  0  0  0
   18.0322   18.5425   24.3836 H   0  0  0  0  0  0  0  0  0  0  0  0
   19.6222   19.2571   23.0960 C   0  0  0  0  0  0  0  0  0  0  0  0
   19.7166   19.7936   22.1425 H   0  0  0  0  0  0  0  0  0  0  0  0
   20.0799   19.8867   23.8693 H   0  0  0  0  0  0  0  0  0  0  0  0
   20.3609   17.9009   23.0060 C   0  0  0  0  0  0  0  0  0  0  0  0
   19.8368   17.2566   22.2862 H   0  0  0  0  0  0  0  0  0  0  0  0
   20.3086   17.3853   23.9751 H   0  0  0  0  0  0  0  0  0  0  0  0
   21.8400   18.0279   22.5648 C   0  0  0  0  0  0  0  0  0  0  0  0
   22.2464   17.0179   22.4156 H   0  0  0  0  0  0  0  0  0  0  0  0
   21.8914   18.5274   21.5874 H   0  0  0  0  0  0  0  0  0  0  0  0
   22.7285   18.7813   23.5832 C   0  0  0  0  0  0  0  0  0  0  0  0
   22.6371   18.3132   24.5733 H   0  0  0  0  0  0  0  0  0  0  0  0
   22.3878   19.8198   23.6891 H   0  0  0  0  0  0  0  0  0  0  0  0
   24.2112   18.7830   23.1534 C   0  0  0  0  0  0  0  0  0  0  0  0
   24.6017   17.7599   23.0764 H   0  0  0  0  0  0  0  0  0  0  0  0
   24.8262   19.3235   23.8846 H   0  0  0  0  0  0  0  0  0  0  0  0
   24.3391   19.2719   22.1789 H   0  0  0  0  0  0  0  0  0  0  0  0
   15.9036   20.0823   23.8524 C   0  0  0  0  0  0  0  0  0  0  0  0
   15.8460   19.5564   24.8079 H   0  0  0  0  0  0  0  0  0  0  0  0
   15.3618   21.0285   23.9189 H   0  0  0  0  0  0  0  0  0  0  0  0
   15.4707   19.4641   23.0629 H   0  0  0  0  0  0  0  0  0  0  0  0
  1  2  1  0  0  0  0
  1  3  1  0  0  0  0
  1  4  1  0  0  0  0
  4  5  1  0  0  0  0
  4  6  1  0  0  0  0
  4  7  1  0  0  0  0
  7  8  1  0  0  0  0
  7  9  1  0  0  0  0
  7 10  1  0  0  0  0
 10 11  1  0  0  0  0
 10 12  1  0  0  0  0
 10 13  1  0  0  0  0
 13 14  1  0  0  0  0
 13 15  1  0  0  0  0
 13 16  1  0  0  0  0
 16 17  1  0  0  0  0
 16 18  1  0  0  0  0
 16 19  1  0  0  0  0
 19 20  1  0  0  0  0
 19 21  1  0  0  0  0
 19 22  1  0  0  0  0
  1 23  1  0  0  0  0
 23 24  1  0  0  0  0
 23 25  1  0  0  0  0
 23 26  1  0  0  0  0
M  END
> <VConfSearch Rank>
506

> <Conf_Id>
36

> <Delta U+W>
0.662

> <U+W>
22.504

> <U>
71.348

> <W>
-48.844

> <W(PB)>
-51.157

> <W(SA)>
2.313

> <Valence>
2.262

> <Coulomb>
68.807

> <VdW>
0.280

> <VdW6>
-5.916

> <VdW12>
6.195

> <Bond>
0.164

> <Angle>
0.622

> <Pdih>
1.475

> <Idih>
0.000

> <Tether>
0.000

$$$$
VeraChem MOL file


 26 25  0  0  0  0  0  0  0  0999 V2000     
   20.4649   19.9972   20.4194 N   0  3  0  0  0  0  0  0  0  0  0  0
   21.2375   20.6600   20.5885 H   0  0  0  0  0  0  0  0  0  0  0  0
   19.7014   20.5626   20.0167 H   0  0  0  0  0  0  0  0  0  0  0  0
   20.0187   19.3701   21.7248 C   0  0  0  0  0  0  0  0  0  0  0  0
   20.8556   18.7875   22.1171 H   0  0  0  0  0  0  0  0  0  0  0  0
   19.1956   18.6859   21.5041 H   0  0  0  0  0  0  0  0  0  0  0  0
   19.5659   20.4042   22.7735 C   0  0  0  0  0  0  0  0  0  0  0  0
   20.3924   21.0928   22.9941 H   0  0  0  0  0  0  0  0  0  0  0  0
   18.7545   21.0119   22.3512 H   0  0  0  0  0  0  0  0  0  0  0  0
   19.0716   19.7485   24.0847 C   0  0  0  0  0  0  0  0  0  0  0  0
   18.2267   19.0811   23.8646 H   0  0  0  0  0  0  0  0  0  0  0  0
   18.6818   20.5345   24.7463 H   0  0  0  0  0  0  0  0  0  0  0  0
   20.1792   18.9619   24.8265 C   0  0  0  0  0  0  0  0  0  0  0  0
   20.5442   18.1409   24.1950 H   0  0  0  0  0  0  0  0  0  0  0  0
   21.0360   19.6235   25.0152 H   0  0  0  0  0  0  0  0  0  0  0  0
   19.6727   18.3827   26.1663 C   0  0  0  0  0  0  0  0  0  0  0  0
   18.8147   17.7204   25.9836 H   0  0  0  0  0  0  0  0  0  0  0  0
   19.3125   19.1969   26.8107 H   0  0  0  0  0  0  0  0  0  0  0  0
   20.7776   17.5970   26.9045 C   0  0  0  0  0  0  0  0  0  0  0  0
   21.1342   16.7535   26.2991 H   0  0  0  0  0  0  0  0  0  0  0  0
   20.3991   17.1943   27.8530 H   0  0  0  0  0  0  0  0  0  0  0  0
   21.6364   18.2421   27.1315 H   0  0  0  0  0  0  0  0  0  0  0  0
   20.8969   18.9110   19.4440 C   0  0  0  0  0  0  0  0  0  0  0  0
   20.0544   18.2420   19.2553 H   0  0  0  0  0  0  0  0  0  0  0  0
   21.2155   19.3759   18.5083 H   0  0  0  0  0  0  0  0  0  0  0  0
   21.7266   18.3482   19.8775 H   0  0  0  0  0  0  0  0  0  0  0  0
  1  2  1  0  0  0  0
  1  3  1  0  0  0  0
  1  4  1  0  0  0  0
  4  5  1  0  0  0  0
  4  6  1  0  0  0  0
  4  7  1  0  0  0  0
  7  8  1  0  0  0  0
  7  9  1  0  0  0  0
  7 10  1  0  0  0  0
 10 11  1  0  0  0  0
 10 12  1  0  0  0  0
 10 13  1  0  0  0  0
 13 14  1  0  0  0  0
 13 15  1  0  0  0  0
 13 16  1  0  0  0  0
 16 17  1  0  0  0  0
 16 18  1  0  0  0  0
 16 19  1  0  0  0  0
 19 20  1  0  0  0  0
 19 21  1  0  0  0  0
 19 22  1  0  0  0  0
  1 23  1  0  0  0  0
 23 24  1  0  0  0  0
 23 25  1  0  0  0  0
 23 26  1  0  0  0  0
M  END
> <VConfSearch Rank>
507

> <Conf_Id>
46

> <Delta U+W>
0.496

> <U+W>
22.338

> <U>
71.138

> <W>
-48.799

> <W(PB)>
-51.136

> <W(SA)>
2.337

> <Valence>
2.016

> <Coulomb>
68.932

> <VdW>
0.190

> <VdW6>
-5.902

> <VdW12>
6.092

> <Bond>
0.149

> <Angle>
0.477

> <Pdih>
1.390

> <Idih>
0.000

> <Tether>
0.000

$$$$
VeraChem MOL file


 26 25  0  0  0  0  0  0  0  0999 V2000     
   18.4025   17.5063   25.3337 N   0  3  0  0  0  0  0  0  0  0  0  0
   18.5852   16.4918   25.3808 H   0  0  0  0  0  0  0  0  0  0  0  0
   17.4801   17.5982   24.8804 H   0  0  0  0  0  0  0  0  0  0  0  0
   19.4660   18.1911   24.4991 C   0  0  0  0  0  0  0  0  0  0  0  0
   20.4253   18.0616   25.0064 H   0  0  0  0  0  0  0  0  0  0  0  0
   19.2315   19.2578   24.4717 H   0  0  0  0  0  0  0  0  0  0  0  0
   19.5609   17.6407   23.0630 C   0  0  0  0  0  0  0  0  0  0  0  0
   19.7530   16.5603   23.1047 H   0  0  0  0  0  0  0  0  0  0  0  0
   18.5964   17.7692   22.5538 H   0  0  0  0  0  0  0  0  0  0  0  0
   20.6795   18.3179   22.2363 C   0  0  0  0  0  0  0  0  0  0  0  0
   20.7493   17.8164   21.2610 H   0  0  0  0  0  0  0  0  0  0  0  0
   21.6471   18.1642   22.7341 H   0  0  0  0  0  0  0  0  0  0  0  0
   20.4407   19.8311   22.0145 C   0  0  0  0  0  0  0  0  0  0  0  0
   19.4580   19.9832   21.5470 H   0  0  0  0  0  0  0  0  0  0  0  0
   20.4179   20.3534   22.9803 H   0  0  0  0  0  0  0  0  0  0  0  0
   21.5357   20.4606   21.1247 C   0  0  0  0  0  0  0  0  0  0  0  0
   21.5620   19.9511   20.1512 H   0  0  0  0  0  0  0  0  0  0  0  0
   22.5214   20.3106   21.5873 H   0  0  0  0  0  0  0  0  0  0  0  0
   21.2976   21.9700   20.9055 C   0  0  0  0  0  0  0  0  0  0  0  0
   20.3331   22.1502   20.4131 H   0  0  0  0  0  0  0  0  0  0  0  0
   22.0845   22.3986   20.2715 H   0  0  0  0  0  0  0  0  0  0  0  0
   21.3010   22.5131   21.8596 H   0  0  0  0  0  0  0  0  0  0  0  0
   18.3731   18.1091   26.7314 C   0  0  0  0  0  0  0  0  0  0  0  0
   17.6034   17.6071   27.3219 H   0  0  0  0  0  0  0  0  0  0  0  0
   19.3486   17.9706   27.2028 H   0  0  0  0  0  0  0  0  0  0  0  0
   18.1453   19.1748   26.6582 H   0  0  0  0  0  0  0  0  0  0  0  0
  1  2  1  0  0  0  0
  1  3  1  0  0  0  0
  1  4  1  0  0  0  0
  4  5  1  0  0  0  0
  4  6  1  0  0  0  0
  4  7  1  0  0  0  0
  7  8  1  0  0  0  0
  7  9  1  0  0  0  0
  7 10  1  0  0  0  0
 10 11  1  0  0  0  0
 10 12  1  0  0  0  0
 10 13  1  0  0  0  0
 13 14  1  0  0  0  0
 13 15  1  0  0  0  0
 13 16  1  0  0  0  0
 16 17  1  0  0  0  0
 16 18  1  0  0  0  0
 16 19  1  0  0  0  0
 19 20  1  0  0  0  0
 19 21  1  0  0  0  0
 19 22  1  0  0  0  0
  1 23  1  0  0  0  0
 23 24  1  0  0  0  0
 23 25  1  0  0  0  0
 23 26  1  0  0  0  0
M  END
> <VConfSearch Rank>
508

> <Conf_Id>
45

> <Delta U+W>
0.471

> <U+W>
22.313

> <U>
71.138

> <W>
-48.825

> <W(PB)>
-51.169

> <W(SA)>
2.344

> <Valence>
2.016

> <Coulomb>
68.932

> <VdW>
0.190

> <VdW6>
-5.902

> <VdW12>
6.092

> <Bond>
0.149

> <Angle>
0.477

> <Pdih>
1.390

> <Idih>
0.000

> <Tether>
0.000

$$$$
VeraChem MOL file


 26 25  0  0  0  0  0  0  0  0999 V2000     
   21.7701   20.0071   25.0345 N   0  3  0  0  0  0  0  0  0  0  0  0
   21.9740   20.4520   24.1269 H   0  0  0  0  0  0  0  0  0  0  0  0
   22.2134   19.0763   24.9922 H   0  0  0  0  0  0  0  0  0  0  0  0
   20.2717   19.8635   25.2188 C   0  0  0  0  0  0  0  0  0  0  0  0
   19.8381   20.8663   25.2495 H   0  0  0  0  0  0  0  0  0  0  0  0
   20.1025   19.3888   26.1887 H   0  0  0  0  0  0  0  0  0  0  0  0
   19.5835   19.0343   24.1167 C   0  0  0  0  0  0  0  0  0  0  0  0
   20.0246   18.0298   24.0955 H   0  0  0  0  0  0  0  0  0  0  0  0
   18.5265   18.9087   24.3861 H   0  0  0  0  0  0  0  0  0  0  0  0
   19.6823   19.7008   22.7215 C   0  0  0  0  0  0  0  0  0  0  0  0
   20.7312   19.7507   22.4000 H   0  0  0  0  0  0  0  0  0  0  0  0
   19.3317   20.7396   22.7969 H   0  0  0  0  0  0  0  0  0  0  0  0
   18.8490   18.9799   21.6333 C   0  0  0  0  0  0  0  0  0  0  0  0
   17.7937   18.9479   21.9378 H   0  0  0  0  0  0  0  0  0  0  0  0
   18.8852   19.5790   20.7129 H   0  0  0  0  0  0  0  0  0  0  0  0
   19.3455   17.5481   21.3210 C   0  0  0  0  0  0  0  0  0  0  0  0
   19.2464   16.9099   22.2092 H   0  0  0  0  0  0  0  0  0  0  0  0
   20.4137   17.5732   21.0641 H   0  0  0  0  0  0  0  0  0  0  0  0
   18.5548   16.9124   20.1575 C   0  0  0  0  0  0  0  0  0  0  0  0
   17.4855   16.8458   20.3969 H   0  0  0  0  0  0  0  0  0  0  0  0
   18.9176   15.8971   19.9513 H   0  0  0  0  0  0  0  0  0  0  0  0
   18.6631   17.5015   19.2375 H   0  0  0  0  0  0  0  0  0  0  0  0
   22.3565   20.8276   26.1748 C   0  0  0  0  0  0  0  0  0  0  0  0
   22.1556   20.3215   27.1216 H   0  0  0  0  0  0  0  0  0  0  0  0
   23.4348   20.9236   26.0295 H   0  0  0  0  0  0  0  0  0  0  0  0
   21.8952   21.8176   26.1792 H   0  0  0  0  0  0  0  0  0  0  0  0
  1  2  1  0  0  0  0
  1  3  1  0  0  0  0
  1  4  1  0  0  0  0
  4  5  1  0  0  0  0
  4  6  1  0  0  0  0
  4  7  1  0  0  0  0
  7  8  1  0  0  0  0
  7  9  1  0  0  0  0
  7 10  1  0  0  0  0
 10 11  1  0  0  0  0
 10 12  1  0  0  0  0
 10 13  1  0  0  0  0
 13 14  1  0  0  0  0
 13 15  1  0  0  0  0
 13 16  1  0  0  0  0
 16 17  1  0  0  0  0
 16 18  1  0  0  0  0
 16 19  1  0  0  0  0
 19 20  1  0  0  0  0
 19 21  1  0  0  0  0
 19 22  1  0  0  0  0
  1 23  1  0  0  0  0
 23 24  1  0  0  0  0
 23 25  1  0  0  0  0
 23 26  1  0  0  0  0
M  END
> <VConfSearch Rank>
509

> <Conf_Id>
143

> <Delta U+W>
0.915

> <U+W>
22.757

> <U>
71.994

> <W>
-49.237

> <W(PB)>
-51.537

> <W(SA)>
2.300

> <Valence>
2.376

> <Coulomb>
69.315

> <VdW>
0.303

> <VdW6>
-6.508

> <VdW12>
6.810

> <Bond>
0.182

> <Angle>
0.660

> <Pdih>
1.534

> <Idih>
0.000

> <Tether>
0.000

$$$$
VeraChem MOL file


 26 25  0  0  0  0  0  0  0  0999 V2000     
   20.6670   21.5330   23.7775 N   0  3  0  0  0  0  0  0  0  0  0  0
   21.1309   21.0735   24.5754 H   0  0  0  0  0  0  0  0  0  0  0  0
   19.7193   21.7715   24.1087 H   0  0  0  0  0  0  0  0  0  0  0  0
   20.5839   20.5786   22.6017 C   0  0  0  0  0  0  0  0  0  0  0  0
   21.6029   20.3416   22.2857 H   0  0  0  0  0  0  0  0  0  0  0  0
   20.0879   21.1080   21.7842 H   0  0  0  0  0  0  0  0  0  0  0  0
   19.8176   19.2755   22.9036 C   0  0  0  0  0  0  0  0  0  0  0  0
   18.8039   19.5169   23.2497 H   0  0  0  0  0  0  0  0  0  0  0  0
   19.7114   18.7240   21.9614 H   0  0  0  0  0  0  0  0  0  0  0  0
   20.5395   18.3836   23.9431 C   0  0  0  0  0  0  0  0  0  0  0  0
   20.7409   18.9682   24.8503 H   0  0  0  0  0  0  0  0  0  0  0  0
   21.5206   18.0858   23.5479 H   0  0  0  0  0  0  0  0  0  0  0  0
   19.7469   17.1172   24.3594 C   0  0  0  0  0  0  0  0  0  0  0  0
   20.3373   16.5954   25.1254 H   0  0  0  0  0  0  0  0  0  0  0  0
   18.8093   17.4043   24.8552 H   0  0  0  0  0  0  0  0  0  0  0  0
   19.4609   16.1179   23.2085 C   0  0  0  0  0  0  0  0  0  0  0  0
   19.5189   15.0962   23.6098 H   0  0  0  0  0  0  0  0  0  0  0  0
   20.2439   16.1845   22.4404 H   0  0  0  0  0  0  0  0  0  0  0  0
   18.0636   16.2995   22.5703 C   0  0  0  0  0  0  0  0  0  0  0  0
   17.9372   17.2935   22.1276 H   0  0  0  0  0  0  0  0  0  0  0  0
   17.2710   16.1596   23.3168 H   0  0  0  0  0  0  0  0  0  0  0  0
   17.9055   15.5592   21.7754 H   0  0  0  0  0  0  0  0  0  0  0  0
   21.4240   22.7900   23.3722 C   0  0  0  0  0  0  0  0  0  0  0  0
   20.8974   23.2762   22.5480 H   0  0  0  0  0  0  0  0  0  0  0  0
   21.4767   23.4679   24.2271 H   0  0  0  0  0  0  0  0  0  0  0  0
   22.4328   22.5156   23.0562 H   0  0  0  0  0  0  0  0  0  0  0  0
  1  2  1  0  0  0  0
  1  3  1  0  0  0  0
  1  4  1  0  0  0  0
  4  5  1  0  0  0  0
  4  6  1  0  0  0  0
  4  7  1  0  0  0  0
  7  8  1  0  0  0  0
  7  9  1  0  0  0  0
  7 10  1  0  0  0  0
 10 11  1  0  0  0  0
 10 12  1  0  0  0  0
 10 13  1  0  0  0  0
 13 14  1  0  0  0  0
 13 15  1  0  0  0  0
 13 16  1  0  0  0  0
 16 17  1  0  0  0  0
 16 18  1  0  0  0  0
 16 19  1  0  0  0  0
 19 20  1  0  0  0  0
 19 21  1  0  0  0  0
 19 22  1  0  0  0  0
  1 23  1  0  0  0  0
 23 24  1  0  0  0  0
 23 25  1  0  0  0  0
 23 26  1  0  0  0  0
M  END
> <VConfSearch Rank>
510

> <Conf_Id>
76

> <Delta U+W>
3.468

> <U+W>
25.310

> <U>
74.594

> <W>
-49.283

> <W(PB)>
-51.537

> <W(SA)>
2.253

> <Valence>
4.886

> <Coulomb>
69.332

> <VdW>
0.376

> <VdW6>
-7.329

> <VdW12>
7.705

> <Bond>
0.232

> <Angle>
1.251

> <Pdih>
3.403

> <Idih>
0.000

> <Tether>
0.000

$$$$
VeraChem MOL file


 26 25  0  0  0  0  0  0  0  0999 V2000     
   20.2405   21.8234   23.2069 N   0  3  0  0  0  0  0  0  0  0  0  0
   20.5063   21.7623   24.2021 H   0  0  0  0  0  0  0  0  0  0  0  0
   19.2407   22.0788   23.2047 H   0  0  0  0  0  0  0  0  0  0  0  0
   20.4392   20.4826   22.5289 C   0  0  0  0  0  0  0  0  0  0  0  0
   21.5059   20.2465   22.5590 H   0  0  0  0  0  0  0  0  0  0  0  0
   20.1392   20.5880   21.4832 H   0  0  0  0  0  0  0  0  0  0  0  0
   19.6383   19.3435   23.1852 C   0  0  0  0  0  0  0  0  0  0  0  0
   19.9265   19.2616   24.2391 H   0  0  0  0  0  0  0  0  0  0  0  0
   18.5694   19.5946   23.1668 H   0  0  0  0  0  0  0  0  0  0  0  0
   19.8660   17.9999   22.4514 C   0  0  0  0  0  0  0  0  0  0  0  0
   20.9381   17.7629   22.4097 H   0  0  0  0  0  0  0  0  0  0  0  0
   19.5420   18.1220   21.4084 H   0  0  0  0  0  0  0  0  0  0  0  0
   19.0822   16.8142   23.0730 C   0  0  0  0  0  0  0  0  0  0  0  0
   18.1519   17.1719   23.5354 H   0  0  0  0  0  0  0  0  0  0  0  0
   18.7690   16.1468   22.2581 H   0  0  0  0  0  0  0  0  0  0  0  0
   19.8885   15.9631   24.0874 C   0  0  0  0  0  0  0  0  0  0  0  0
   20.7623   15.5230   23.5868 H   0  0  0  0  0  0  0  0  0  0  0  0
   19.2635   15.1172   24.4062 H   0  0  0  0  0  0  0  0  0  0  0  0
   20.3523   16.7356   25.3418 C   0  0  0  0  0  0  0  0  0  0  0  0
   19.5101   17.2438   25.8288 H   0  0  0  0  0  0  0  0  0  0  0  0
   21.1152   17.4826   25.0906 H   0  0  0  0  0  0  0  0  0  0  0  0
   20.7969   16.0478   26.0727 H   0  0  0  0  0  0  0  0  0  0  0  0
   21.0653   22.8892   22.4986 C   0  0  0  0  0  0  0  0  0  0  0  0
   22.1214   22.6141   22.5426 H   0  0  0  0  0  0  0  0  0  0  0  0
   20.7440   22.9587   21.4570 H   0  0  0  0  0  0  0  0  0  0  0  0
   20.9132   23.8495   22.9964 H   0  0  0  0  0  0  0  0  0  0  0  0
  1  2  1  0  0  0  0
  1  3  1  0  0  0  0
  1  4  1  0  0  0  0
  4  5  1  0  0  0  0
  4  6  1  0  0  0  0
  4  7  1  0  0  0  0
  7  8  1  0  0  0  0
  7  9  1  0  0  0  0
  7 10  1  0  0  0  0
 10 11  1  0  0  0  0
 10 12  1  0  0  0  0
 10 13  1  0  0  0  0
 13 14  1  0  0  0  0
 13 15  1  0  0  0  0
 13 16  1  0  0  0  0
 16 17  1  0  0  0  0
 16 18  1  0  0  0  0
 16 19  1  0  0  0  0
 19 20  1  0  0  0  0
 19 21  1  0  0  0  0
 19 22  1  0  0  0  0
  1 23  1  0  0  0  0
 23 24  1  0  0  0  0
 23 25  1  0  0  0  0
 23 26  1  0  0  0  0
M  END
> <VConfSearch Rank>
511

> <Conf_Id>
123

> <Delta U+W>
3.101

> <U+W>
24.943

> <U>
74.070

> <W>
-49.127

> <W(PB)>
-51.421

> <W(SA)>
2.295

> <Valence>
4.690

> <Coulomb>
69.115

> <VdW>
0.266

> <VdW6>
-6.809

> <VdW12>
7.075

> <Bond>
0.212

> <Angle>
1.133

> <Pdih>
3.345

> <Idih>
0.000

> <Tether>
0.000

$$$$
VeraChem MOL file


 26 25  0  0  0  0  0  0  0  0999 V2000     
   22.0335   20.3459   22.0463 N   0  3  0  0  0  0  0  0  0  0  0  0
   22.8263   20.2783   22.7034 H   0  0  0  0  0  0  0  0  0  0  0  0
   21.4401   21.1082   22.4066 H   0  0  0  0  0  0  0  0  0  0  0  0
   21.2563   19.0438   22.0309 C   0  0  0  0  0  0  0  0  0  0  0  0
   21.9213   18.2679   21.6431 H   0  0  0  0  0  0  0  0  0  0  0  0
   20.4219   19.1573   21.3343 H   0  0  0  0  0  0  0  0  0  0  0  0
   20.7234   18.6155   23.4124 C   0  0  0  0  0  0  0  0  0  0  0  0
   20.2785   17.6190   23.3135 H   0  0  0  0  0  0  0  0  0  0  0  0
   21.5643   18.5084   24.1104 H   0  0  0  0  0  0  0  0  0  0  0  0
   19.6848   19.6124   23.9873 C   0  0  0  0  0  0  0  0  0  0  0  0
   18.8879   19.7998   23.2543 H   0  0  0  0  0  0  0  0  0  0  0  0
   20.1809   20.5782   24.1512 H   0  0  0  0  0  0  0  0  0  0  0  0
   19.0694   19.1510   25.3345 C   0  0  0  0  0  0  0  0  0  0  0  0
   19.7867   18.5307   25.8894 H   0  0  0  0  0  0  0  0  0  0  0  0
   18.9044   20.0407   25.9580 H   0  0  0  0  0  0  0  0  0  0  0  0
   17.7119   18.4130   25.2082 C   0  0  0  0  0  0  0  0  0  0  0  0
   16.9718   19.0799   24.7442 H   0  0  0  0  0  0  0  0  0  0  0  0
   17.3362   18.1993   26.2187 H   0  0  0  0  0  0  0  0  0  0  0  0
   17.7772   17.0897   24.4145 C   0  0  0  0  0  0  0  0  0  0  0  0
   18.5496   16.4227   24.8186 H   0  0  0  0  0  0  0  0  0  0  0  0
   17.9903   17.2707   23.3538 H   0  0  0  0  0  0  0  0  0  0  0  0
   16.8163   16.5619   24.4695 H   0  0  0  0  0  0  0  0  0  0  0  0
   22.5275   20.6715   20.6437 C   0  0  0  0  0  0  0  0  0  0  0  0
   21.6698   20.7691   19.9746 H   0  0  0  0  0  0  0  0  0  0  0  0
   23.0846   21.6107   20.6690 H   0  0  0  0  0  0  0  0  0  0  0  0
   23.1781   19.8660   20.2962 H   0  0  0  0  0  0  0  0  0  0  0  0
  1  2  1  0  0  0  0
  1  3  1  0  0  0  0
  1  4  1  0  0  0  0
  4  5  1  0  0  0  0
  4  6  1  0  0  0  0
  4  7  1  0  0  0  0
  7  8  1  0  0  0  0
  7  9  1  0  0  0  0
  7 10  1  0  0  0  0
 10 11  1  0  0  0  0
 10 12  1  0  0  0  0
 10 13  1  0  0  0  0
 13 14  1  0  0  0  0
 13 15  1  0  0  0  0
 13 16  1  0  0  0  0
 16 17  1  0  0  0  0
 16 18  1  0  0  0  0
 16 19  1  0  0  0  0
 19 20  1  0  0  0  0
 19 21  1  0  0  0  0
 19 22  1  0  0  0  0
  1 23  1  0  0  0  0
 23 24  1  0  0  0  0
 23 25  1  0  0  0  0
 23 26  1  0  0  0  0
M  END
> <VConfSearch Rank>
512

> <Conf_Id>
111

> <Delta U+W>
3.383

> <U+W>
25.225

> <U>
74.516

> <W>
-49.292

> <W(PB)>
-51.558

> <W(SA)>
2.266

> <Valence>
4.842

> <Coulomb>
69.333

> <VdW>
0.342

> <VdW6>
-7.369

> <VdW12>
7.711

> <Bond>
0.232

> <Angle>
1.153

> <Pdih>
3.457

> <Idih>
0.000

> <Tether>
0.000

$$$$
VeraChem MOL file


 26 25  0  0  0  0  0  0  0  0999 V2000     
   20.0637   21.5170   23.3099 N   0  3  0  0  0  0  0  0  0  0  0  0
   20.7870   21.9383   23.9132 H   0  0  0  0  0  0  0  0  0  0  0  0
   19.4810   20.9417   23.9365 H   0  0  0  0  0  0  0  0  0  0  0  0
   20.7100   20.6408   22.2549 C   0  0  0  0  0  0  0  0  0  0  0  0
   21.3253   21.2847   21.6214 H   0  0  0  0  0  0  0  0  0  0  0  0
   19.9155   20.2170   21.6363 H   0  0  0  0  0  0  0  0  0  0  0  0
   21.5826   19.5075   22.8334 C   0  0  0  0  0  0  0  0  0  0  0  0
   22.0437   18.9592   22.0012 H   0  0  0  0  0  0  0  0  0  0  0  0
   22.4105   19.9486   23.4041 H   0  0  0  0  0  0  0  0  0  0  0  0
   20.8125   18.5109   23.7367 C   0  0  0  0  0  0  0  0  0  0  0  0
   20.4197   19.0322   24.6197 H   0  0  0  0  0  0  0  0  0  0  0  0
   21.5298   17.7706   24.1139 H   0  0  0  0  0  0  0  0  0  0  0  0
   19.6581   17.7851   22.9995 C   0  0  0  0  0  0  0  0  0  0  0  0
   18.9520   18.5256   22.6013 H   0  0  0  0  0  0  0  0  0  0  0  0
   20.0568   17.2411   22.1322 H   0  0  0  0  0  0  0  0  0  0  0  0
   18.8683   16.8072   23.9032 C   0  0  0  0  0  0  0  0  0  0  0  0
   18.0047   16.4272   23.3396 H   0  0  0  0  0  0  0  0  0  0  0  0
   18.4567   17.3482   24.7667 H   0  0  0  0  0  0  0  0  0  0  0  0
   19.7078   15.6056   24.3941 C   0  0  0  0  0  0  0  0  0  0  0  0
   20.5125   15.9230   25.0686 H   0  0  0  0  0  0  0  0  0  0  0  0
   20.1580   15.0669   23.5502 H   0  0  0  0  0  0  0  0  0  0  0  0
   19.0770   14.8966   24.9459 H   0  0  0  0  0  0  0  0  0  0  0  0
   19.2251   22.5987   22.6436 C   0  0  0  0  0  0  0  0  0  0  0  0
   18.7651   23.2211   23.4144 H   0  0  0  0  0  0  0  0  0  0  0  0
   19.8689   23.2124   22.0097 H   0  0  0  0  0  0  0  0  0  0  0  0
   18.4483   22.1282   22.0369 H   0  0  0  0  0  0  0  0  0  0  0  0
  1  2  1  0  0  0  0
  1  3  1  0  0  0  0
  1  4  1  0  0  0  0
  4  5  1  0  0  0  0
  4  6  1  0  0  0  0
  4  7  1  0  0  0  0
  7  8  1  0  0  0  0
  7  9  1  0  0  0  0
  7 10  1  0  0  0  0
 10 11  1  0  0  0  0
 10 12  1  0  0  0  0
 10 13  1  0  0  0  0
 13 14  1  0  0  0  0
 13 15  1  0  0  0  0
 13 16  1  0  0  0  0
 16 17  1  0  0  0  0
 16 18  1  0  0  0  0
 16 19  1  0  0  0  0
 19 20  1  0  0  0  0
 19 21  1  0  0  0  0
 19 22  1  0  0  0  0
  1 23  1  0  0  0  0
 23 24  1  0  0  0  0
 23 25  1  0  0  0  0
 23 26  1  0  0  0  0
M  END
> <VConfSearch Rank>
513

> <Conf_Id>
126

> <Delta U+W>
1.519

> <U+W>
23.361

> <U>
72.579

> <W>
-49.218

> <W(PB)>
-51.496

> <W(SA)>
2.279

> <Valence>
2.678

> <Coulomb>
69.622

> <VdW>
0.279

> <VdW6>
-7.328

> <VdW12>
7.608

> <Bond>
0.212

> <Angle>
0.911

> <Pdih>
1.555

> <Idih>
0.000

> <Tether>
0.000

$$$$
VeraChem MOL file


 26 25  0  0  0  0  0  0  0  0999 V2000     
   21.3796   17.2131   22.6584 N   0  3  0  0  0  0  0  0  0  0  0  0
   21.5900   18.1775   22.3607 H   0  0  0  0  0  0  0  0  0  0  0  0
   21.0677   16.7217   21.8065 H   0  0  0  0  0  0  0  0  0  0  0  0
   20.2700   17.2209   23.6916 C   0  0  0  0  0  0  0  0  0  0  0  0
   20.6379   17.7449   24.5768 H   0  0  0  0  0  0  0  0  0  0  0  0
   20.0703   16.1833   23.9709 H   0  0  0  0  0  0  0  0  0  0  0  0
   18.9639   17.8790   23.2001 C   0  0  0  0  0  0  0  0  0  0  0  0
   18.5742   17.3080   22.3469 H   0  0  0  0  0  0  0  0  0  0  0  0
   18.2087   17.7964   23.9929 H   0  0  0  0  0  0  0  0  0  0  0  0
   19.1162   19.3667   22.7932 C   0  0  0  0  0  0  0  0  0  0  0  0
   18.1414   19.7221   22.4348 H   0  0  0  0  0  0  0  0  0  0  0  0
   19.8041   19.4537   21.9418 H   0  0  0  0  0  0  0  0  0  0  0  0
   19.6023   20.2707   23.9548 C   0  0  0  0  0  0  0  0  0  0  0  0
   18.8979   20.2043   24.7953 H   0  0  0  0  0  0  0  0  0  0  0  0
   20.5661   19.9022   24.3300 H   0  0  0  0  0  0  0  0  0  0  0  0
   19.7816   21.7537   23.5479 C   0  0  0  0  0  0  0  0  0  0  0  0
   20.4948   21.8277   22.7150 H   0  0  0  0  0  0  0  0  0  0  0  0
   20.2352   22.2966   24.3889 H   0  0  0  0  0  0  0  0  0  0  0  0
   18.4576   22.4525   23.1627 C   0  0  0  0  0  0  0  0  0  0  0  0
   17.7155   22.3640   23.9667 H   0  0  0  0  0  0  0  0  0  0  0  0
   18.0269   22.0269   22.2481 H   0  0  0  0  0  0  0  0  0  0  0  0
   18.6271   23.5215   22.9795 H   0  0  0  0  0  0  0  0  0  0  0  0
   22.6215   16.5488   23.2359 C   0  0  0  0  0  0  0  0  0  0  0  0
   22.9498   17.1050   24.1167 H   0  0  0  0  0  0  0  0  0  0  0  0
   22.3815   15.5207   23.5156 H   0  0  0  0  0  0  0  0  0  0  0  0
   23.4122   16.5510   22.4823 H   0  0  0  0  0  0  0  0  0  0  0  0
  1  2  1  0  0  0  0
  1  3  1  0  0  0  0
  1  4  1  0  0  0  0
  4  5  1  0  0  0  0
  4  6  1  0  0  0  0
  4  7  1  0  0  0  0
  7  8  1  0  0  0  0
  7  9  1  0  0  0  0
  7 10  1  0  0  0  0
 10 11  1  0  0  0  0
 10 12  1  0  0  0  0
 10 13  1  0  0  0  0
 13 14  1  0  0  0  0
 13 15  1  0  0  0  0
 13 16  1  0  0  0  0
 16 17  1  0  0  0  0
 16 18  1  0  0  0  0
 16 19  1  0  0  0  0
 19 20  1  0  0  0  0
 19 21  1  0  0  0  0
 19 22  1  0  0  0  0
  1 23  1  0  0  0  0
 23 24  1  0  0  0  0
 23 25  1  0  0  0  0
 23 26  1  0  0  0  0
M  END
> <VConfSearch Rank>
514

> <Conf_Id>
134

> <Delta U+W>
1.464

> <U+W>
23.306

> <U>
72.579

> <W>
-49.273

> <W(PB)>
-51.540

> <W(SA)>
2.267

> <Valence>
2.677

> <Coulomb>
69.622

> <VdW>
0.280

> <VdW6>
-7.328

> <VdW12>
7.608

> <Bond>
0.212

> <Angle>
0.911

> <Pdih>
1.555

> <Idih>
0.000

> <Tether>
0.000

$$$$
VeraChem MOL file


 26 25  0  0  0  0  0  0  0  0999 V2000     
   22.4190   18.1748   22.0179 N   0  3  0  0  0  0  0  0  0  0  0  0
   21.8624   17.3348   21.7960 H   0  0  0  0  0  0  0  0  0  0  0  0
   23.0106   17.9083   22.8203 H   0  0  0  0  0  0  0  0  0  0  0  0
   21.5053   19.3219   22.4003 C   0  0  0  0  0  0  0  0  0  0  0  0
   20.8926   19.5673   21.5292 H   0  0  0  0  0  0  0  0  0  0  0  0
   22.1323   20.1859   22.6348 H   0  0  0  0  0  0  0  0  0  0  0  0
   20.5951   19.0016   23.5997 C   0  0  0  0  0  0  0  0  0  0  0  0
   19.9841   18.1222   23.3599 H   0  0  0  0  0  0  0  0  0  0  0  0
   21.2139   18.7402   24.4684 H   0  0  0  0  0  0  0  0  0  0  0  0
   19.6841   20.2011   23.9515 C   0  0  0  0  0  0  0  0  0  0  0  0
   19.0367   20.4390   23.0969 H   0  0  0  0  0  0  0  0  0  0  0  0
   20.3105   21.0898   24.1112 H   0  0  0  0  0  0  0  0  0  0  0  0
   18.8234   19.9759   25.2217 C   0  0  0  0  0  0  0  0  0  0  0  0
   19.4891   19.8520   26.0870 H   0  0  0  0  0  0  0  0  0  0  0  0
   18.2419   20.8870   25.4191 H   0  0  0  0  0  0  0  0  0  0  0  0
   17.8545   18.7673   25.1602 C   0  0  0  0  0  0  0  0  0  0  0  0
   17.3050   18.7115   26.1103 H   0  0  0  0  0  0  0  0  0  0  0  0
   18.4210   17.8293   25.0868 H   0  0  0  0  0  0  0  0  0  0  0  0
   16.8357   18.8538   24.0011 C   0  0  0  0  0  0  0  0  0  0  0  0
   16.2696   19.7933   24.0425 H   0  0  0  0  0  0  0  0  0  0  0  0
   16.1171   18.0260   24.0581 H   0  0  0  0  0  0  0  0  0  0  0  0
   17.3315   18.7935   23.0242 H   0  0  0  0  0  0  0  0  0  0  0  0
   23.2811   18.5737   20.8281 C   0  0  0  0  0  0  0  0  0  0  0  0
   23.8846   19.4433   21.0974 H   0  0  0  0  0  0  0  0  0  0  0  0
   23.9342   17.7392   20.5632 H   0  0  0  0  0  0  0  0  0  0  0  0
   22.6348   18.8192   19.9825 H   0  0  0  0  0  0  0  0  0  0  0  0
  1  2  1  0  0  0  0
  1  3  1  0  0  0  0
  1  4  1  0  0  0  0
  4  5  1  0  0  0  0
  4  6  1  0  0  0  0
  4  7  1  0  0  0  0
  7  8  1  0  0  0  0
  7  9  1  0  0  0  0
  7 10  1  0  0  0  0
 10 11  1  0  0  0  0
 10 12  1  0  0  0  0
 10 13  1  0  0  0  0
 13 14  1  0  0  0  0
 13 15  1  0  0  0  0
 13 16  1  0  0  0  0
 16 17  1  0  0  0  0
 16 18  1  0  0  0  0
 16 19  1  0  0  0  0
 19 20  1  0  0  0  0
 19 21  1  0  0  0  0
 19 22  1  0  0  0  0
  1 23  1  0  0  0  0
 23 24  1  0  0  0  0
 23 25  1  0  0  0  0
 23 26  1  0  0  0  0
M  END
> <VConfSearch Rank>
515

> <Conf_Id>
30

> <Delta U+W>
0.910

> <U+W>
22.752

> <U>
71.870

> <W>
-49.118

> <W(PB)>
-51.409

> <W(SA)>
2.290

> <Valence>
2.682

> <Coulomb>
68.933

> <VdW>
0.255

> <VdW6>
-6.833

> <VdW12>
7.088

> <Bond>
0.205

> <Angle>
1.003

> <Pdih>
1.473

> <Idih>
0.000

> <Tether>
0.000

$$$$
VeraChem MOL file


 26 25  0  0  0  0  0  0  0  0999 V2000     
   19.9408   21.8317   23.7611 N   0  3  0  0  0  0  0  0  0  0  0  0
   20.2918   22.1815   22.8559 H   0  0  0  0  0  0  0  0  0  0  0  0
   20.7812   21.6696   24.3375 H   0  0  0  0  0  0  0  0  0  0  0  0
   19.1846   20.5335   23.5620 C   0  0  0  0  0  0  0  0  0  0  0  0
   18.3101   20.7467   22.9420 H   0  0  0  0  0  0  0  0  0  0  0  0
   18.8379   20.1939   24.5413 H   0  0  0  0  0  0  0  0  0  0  0  0
   20.0313   19.4306   22.9015 C   0  0  0  0  0  0  0  0  0  0  0  0
   20.3908   19.7815   21.9251 H   0  0  0  0  0  0  0  0  0  0  0  0
   20.9150   19.2381   23.5229 H   0  0  0  0  0  0  0  0  0  0  0  0
   19.2167   18.1284   22.7192 C   0  0  0  0  0  0  0  0  0  0  0  0
   18.2977   18.3578   22.1620 H   0  0  0  0  0  0  0  0  0  0  0  0
   18.8894   17.7547   23.6986 H   0  0  0  0  0  0  0  0  0  0  0  0
   19.9846   17.0169   21.9576 C   0  0  0  0  0  0  0  0  0  0  0  0
   19.3213   16.1491   21.8383 H   0  0  0  0  0  0  0  0  0  0  0  0
   20.2049   17.3678   20.9400 H   0  0  0  0  0  0  0  0  0  0  0  0
   21.3054   16.5498   22.6213 C   0  0  0  0  0  0  0  0  0  0  0  0
   22.0331   17.3722   22.6399 H   0  0  0  0  0  0  0  0  0  0  0  0
   21.7541   15.7673   21.9935 H   0  0  0  0  0  0  0  0  0  0  0  0
   21.1124   15.9913   24.0496 C   0  0  0  0  0  0  0  0  0  0  0  0
   20.7759   16.7707   24.7444 H   0  0  0  0  0  0  0  0  0  0  0  0
   22.0579   15.5900   24.4366 H   0  0  0  0  0  0  0  0  0  0  0  0
   20.3740   15.1791   24.0593 H   0  0  0  0  0  0  0  0  0  0  0  0
   19.0343   22.8639   24.4172 C   0  0  0  0  0  0  0  0  0  0  0  0
   19.5909   23.7937   24.5547 H   0  0  0  0  0  0  0  0  0  0  0  0
   18.1698   23.0432   23.7741 H   0  0  0  0  0  0  0  0  0  0  0  0
   18.7024   22.4859   25.3867 H   0  0  0  0  0  0  0  0  0  0  0  0
  1  2  1  0  0  0  0
  1  3  1  0  0  0  0
  1  4  1  0  0  0  0
  4  5  1  0  0  0  0
  4  6  1  0  0  0  0
  4  7  1  0  0  0  0
  7  8  1  0  0  0  0
  7  9  1  0  0  0  0
  7 10  1  0  0  0  0
 10 11  1  0  0  0  0
 10 12  1  0  0  0  0
 10 13  1  0  0  0  0
 13 14  1  0  0  0  0
 13 15  1  0  0  0  0
 13 16  1  0  0  0  0
 16 17  1  0  0  0  0
 16 18  1  0  0  0  0
 16 19  1  0  0  0  0
 19 20  1  0  0  0  0
 19 21  1  0  0  0  0
 19 22  1  0  0  0  0
  1 23  1  0  0  0  0
 23 24  1  0  0  0  0
 23 25  1  0  0  0  0
 23 26  1  0  0  0  0
M  END
> <VConfSearch Rank>
516

> <Conf_Id>
29

> <Delta U+W>
0.886

> <U+W>
22.729

> <U>
71.870

> <W>
-49.141

> <W(PB)>
-51.404

> <W(SA)>
2.262

> <Valence>
2.682

> <Coulomb>
68.933

> <VdW>
0.255

> <VdW6>
-6.833

> <VdW12>
7.088

> <Bond>
0.205

> <Angle>
1.003

> <Pdih>
1.473

> <Idih>
0.000

> <Tether>
0.000

$$$$
VeraChem MOL file


 26 25  0  0  0  0  0  0  0  0999 V2000     
   22.0119   17.9429   24.5588 N   0  3  0  0  0  0  0  0  0  0  0  0
   21.8078   17.0467   25.0279 H   0  0  0  0  0  0  0  0  0  0  0  0
   21.8675   18.6685   25.2780 H   0  0  0  0  0  0  0  0  0  0  0  0
   21.0576   18.1561   23.4012 C   0  0  0  0  0  0  0  0  0  0  0  0
   21.2332   17.3626   22.6705 H   0  0  0  0  0  0  0  0  0  0  0  0
   21.3056   19.1136   22.9369 H   0  0  0  0  0  0  0  0  0  0  0  0
   19.5762   18.1524   23.8240 C   0  0  0  0  0  0  0  0  0  0  0  0
   19.3465   17.2007   24.3212 H   0  0  0  0  0  0  0  0  0  0  0  0
   19.4020   18.9391   24.5691 H   0  0  0  0  0  0  0  0  0  0  0  0
   18.6127   18.3357   22.6252 C   0  0  0  0  0  0  0  0  0  0  0  0
   17.5770   18.3053   22.9890 H   0  0  0  0  0  0  0  0  0  0  0  0
   18.7151   17.4729   21.9526 H   0  0  0  0  0  0  0  0  0  0  0  0
   18.8360   19.6336   21.8024 C   0  0  0  0  0  0  0  0  0  0  0  0
   19.8119   19.5844   21.3009 H   0  0  0  0  0  0  0  0  0  0  0  0
   18.0916   19.6690   20.9950 H   0  0  0  0  0  0  0  0  0  0  0  0
   18.7555   20.9514   22.6145 C   0  0  0  0  0  0  0  0  0  0  0  0
   18.9404   21.7940   21.9336 H   0  0  0  0  0  0  0  0  0  0  0  0
   19.5598   20.9872   23.3615 H   0  0  0  0  0  0  0  0  0  0  0  0
   17.3900   21.1622   23.3073 C   0  0  0  0  0  0  0  0  0  0  0  0
   17.3542   22.1444   23.7960 H   0  0  0  0  0  0  0  0  0  0  0  0
   17.2080   20.4030   24.0779 H   0  0  0  0  0  0  0  0  0  0  0  0
   16.5683   21.1187   22.5808 H   0  0  0  0  0  0  0  0  0  0  0  0
   23.4487   17.9675   24.0564 C   0  0  0  0  0  0  0  0  0  0  0  0
   24.1257   17.8125   24.8995 H   0  0  0  0  0  0  0  0  0  0  0  0
   23.5860   17.1708   23.3219 H   0  0  0  0  0  0  0  0  0  0  0  0
   23.6511   18.9361   23.5941 H   0  0  0  0  0  0  0  0  0  0  0  0
  1  2  1  0  0  0  0
  1  3  1  0  0  0  0
  1  4  1  0  0  0  0
  4  5  1  0  0  0  0
  4  6  1  0  0  0  0
  4  7  1  0  0  0  0
  7  8  1  0  0  0  0
  7  9  1  0  0  0  0
  7 10  1  0  0  0  0
 10 11  1  0  0  0  0
 10 12  1  0  0  0  0
 10 13  1  0  0  0  0
 13 14  1  0  0  0  0
 13 15  1  0  0  0  0
 13 16  1  0  0  0  0
 16 17  1  0  0  0  0
 16 18  1  0  0  0  0
 16 19  1  0  0  0  0
 19 20  1  0  0  0  0
 19 21  1  0  0  0  0
 19 22  1  0  0  0  0
  1 23  1  0  0  0  0
 23 24  1  0  0  0  0
 23 25  1  0  0  0  0
 23 26  1  0  0  0  0
M  END
> <VConfSearch Rank>
517

> <Conf_Id>
82

> <Delta U+W>
1.026

> <U+W>
22.868

> <U>
72.455

> <W>
-49.586

> <W(PB)>
-51.821

> <W(SA)>
2.234

> <Valence>
2.908

> <Coulomb>
69.435

> <VdW>
0.112

> <VdW6>
-7.765

> <VdW12>
7.877

> <Bond>
0.233

> <Angle>
1.170

> <Pdih>
1.506

> <Idih>
0.000

> <Tether>
0.000

$$$$
VeraChem MOL file


 26 25  0  0  0  0  0  0  0  0999 V2000     
   20.9864   20.2860   25.4805 N   0  3  0  0  0  0  0  0  0  0  0  0
   20.1445   20.8770   25.4001 H   0  0  0  0  0  0  0  0  0  0  0  0
   21.7851   20.9269   25.3544 H   0  0  0  0  0  0  0  0  0  0  0  0
   20.9888   19.2281   24.3956 C   0  0  0  0  0  0  0  0  0  0  0  0
   20.1286   18.5758   24.5642 H   0  0  0  0  0  0  0  0  0  0  0  0
   21.8993   18.6341   24.5075 H   0  0  0  0  0  0  0  0  0  0  0  0
   20.9244   19.8145   22.9725 C   0  0  0  0  0  0  0  0  0  0  0  0
   20.0179   20.4235   22.8638 H   0  0  0  0  0  0  0  0  0  0  0  0
   21.7730   20.4957   22.8255 H   0  0  0  0  0  0  0  0  0  0  0  0
   20.9636   18.7227   21.8744 C   0  0  0  0  0  0  0  0  0  0  0  0
   21.9323   18.2064   21.9219 H   0  0  0  0  0  0  0  0  0  0  0  0
   20.9336   19.2044   20.8880 H   0  0  0  0  0  0  0  0  0  0  0  0
   19.8329   17.6626   21.9691 C   0  0  0  0  0  0  0  0  0  0  0  0
   19.9463   16.9541   21.1370 H   0  0  0  0  0  0  0  0  0  0  0  0
   19.9662   17.0674   22.8825 H   0  0  0  0  0  0  0  0  0  0  0  0
   18.3914   18.2320   21.9477 C   0  0  0  0  0  0  0  0  0  0  0  0
   18.2184   18.8619   22.8306 H   0  0  0  0  0  0  0  0  0  0  0  0
   17.6834   17.3958   22.0321 H   0  0  0  0  0  0  0  0  0  0  0  0
   18.0667   19.0308   20.6650 C   0  0  0  0  0  0  0  0  0  0  0  0
   18.6767   19.9396   20.5913 H   0  0  0  0  0  0  0  0  0  0  0  0
   17.0131   19.3386   20.6598 H   0  0  0  0  0  0  0  0  0  0  0  0
   18.2436   18.4244   19.7673 H   0  0  0  0  0  0  0  0  0  0  0  0
   21.0446   19.6232   26.8498 C   0  0  0  0  0  0  0  0  0  0  0  0
   21.9591   19.0305   26.9233 H   0  0  0  0  0  0  0  0  0  0  0  0
   21.0427   20.3957   27.6220 H   0  0  0  0  0  0  0  0  0  0  0  0
   20.1733   18.9762   26.9731 H   0  0  0  0  0  0  0  0  0  0  0  0
  1  2  1  0  0  0  0
  1  3  1  0  0  0  0
  1  4  1  0  0  0  0
  4  5  1  0  0  0  0
  4  6  1  0  0  0  0
  4  7  1  0  0  0  0
  7  8  1  0  0  0  0
  7  9  1  0  0  0  0
  7 10  1  0  0  0  0
 10 11  1  0  0  0  0
 10 12  1  0  0  0  0
 10 13  1  0  0  0  0
 13 14  1  0  0  0  0
 13 15  1  0  0  0  0
 13 16  1  0  0  0  0
 16 17  1  0  0  0  0
 16 18  1  0  0  0  0
 16 19  1  0  0  0  0
 19 20  1  0  0  0  0
 19 21  1  0  0  0  0
 19 22  1  0  0  0  0
  1 23  1  0  0  0  0
 23 24  1  0  0  0  0
 23 25  1  0  0  0  0
 23 26  1  0  0  0  0
M  END
> <VConfSearch Rank>
518

> <Conf_Id>
71

> <Delta U+W>
1.096

> <U+W>
22.938

> <U>
72.455

> <W>
-49.517

> <W(PB)>
-51.795

> <W(SA)>
2.278

> <Valence>
2.908

> <Coulomb>
69.435

> <VdW>
0.112

> <VdW6>
-7.766

> <VdW12>
7.877

> <Bond>
0.233

> <Angle>
1.170

> <Pdih>
1.506

> <Idih>
0.000

> <Tether>
0.000

$$$$
VeraChem MOL file


 26 25  0  0  0  0  0  0  0  0999 V2000     
   18.5364   17.2521   22.6842 N   0  3  0  0  0  0  0  0  0  0  0  0
   18.2178   18.1017   23.1736 H   0  0  0  0  0  0  0  0  0  0  0  0
   18.0850   16.4682   23.1817 H   0  0  0  0  0  0  0  0  0  0  0  0
   20.0474   17.1247   22.7952 C   0  0  0  0  0  0  0  0  0  0  0  0
   20.3455   16.2258   22.2498 H   0  0  0  0  0  0  0  0  0  0  0  0
   20.2853   16.9691   23.8502 H   0  0  0  0  0  0  0  0  0  0  0  0
   20.8488   18.3376   22.2699 C   0  0  0  0  0  0  0  0  0  0  0  0
   21.9193   18.1364   22.4078 H   0  0  0  0  0  0  0  0  0  0  0  0
   20.6972   18.4316   21.1868 H   0  0  0  0  0  0  0  0  0  0  0  0
   20.4895   19.6806   22.9544 C   0  0  0  0  0  0  0  0  0  0  0  0
   19.4391   19.9312   22.7554 H   0  0  0  0  0  0  0  0  0  0  0  0
   21.0865   20.4724   22.4836 H   0  0  0  0  0  0  0  0  0  0  0  0
   20.7488   19.6756   24.4826 C   0  0  0  0  0  0  0  0  0  0  0  0
   20.1756   18.8649   24.9513 H   0  0  0  0  0  0  0  0  0  0  0  0
   21.8078   19.4571   24.6774 H   0  0  0  0  0  0  0  0  0  0  0  0
   20.3597   21.0030   25.1778 C   0  0  0  0  0  0  0  0  0  0  0  0
   20.4662   20.8753   26.2642 H   0  0  0  0  0  0  0  0  0  0  0  0
   19.2976   21.2203   24.9974 H   0  0  0  0  0  0  0  0  0  0  0  0
   21.2200   22.2079   24.7332 C   0  0  0  0  0  0  0  0  0  0  0  0
   21.0519   22.4573   23.6783 H   0  0  0  0  0  0  0  0  0  0  0  0
   22.2893   22.0029   24.8728 H   0  0  0  0  0  0  0  0  0  0  0  0
   20.9694   23.0976   25.3253 H   0  0  0  0  0  0  0  0  0  0  0  0
   18.0902   17.2681   21.2268 C   0  0  0  0  0  0  0  0  0  0  0  0
   17.0004   17.3299   21.1872 H   0  0  0  0  0  0  0  0  0  0  0  0
   18.5257   18.1350   20.7257 H   0  0  0  0  0  0  0  0  0  0  0  0
   18.4256   16.3504   20.7390 H   0  0  0  0  0  0  0  0  0  0  0  0
  1  2  1  0  0  0  0
  1  3  1  0  0  0  0
  1  4  1  0  0  0  0
  4  5  1  0  0  0  0
  4  6  1  0  0  0  0
  4  7  1  0  0  0  0
  7  8  1  0  0  0  0
  7  9  1  0  0  0  0
  7 10  1  0  0  0  0
 10 11  1  0  0  0  0
 10 12  1  0  0  0  0
 10 13  1  0  0  0  0
 13 14  1  0  0  0  0
 13 15  1  0  0  0  0
 13 16  1  0  0  0  0
 16 17  1  0  0  0  0
 16 18  1  0  0  0  0
 16 19  1  0  0  0  0
 19 20  1  0  0  0  0
 19 21  1  0  0  0  0
 19 22  1  0  0  0  0
  1 23  1  0  0  0  0
 23 24  1  0  0  0  0
 23 25  1  0  0  0  0
 23 26  1  0  0  0  0
M  END
> <VConfSearch Rank>
519

> <Conf_Id>
84

> <Delta U+W>
1.456

> <U+W>
23.298

> <U>
73.042

> <W>
-49.744

> <W(PB)>
-51.966

> <W(SA)>
2.222

> <Valence>
2.938

> <Coulomb>
69.625

> <VdW>
0.478

> <VdW6>
-8.182

> <VdW12>
8.660

> <Bond>
0.253

> <Angle>
1.038

> <Pdih>
1.647

> <Idih>
0.000

> <Tether>
0.000

$$$$
VeraChem MOL file


 26 25  0  0  0  0  0  0  0  0999 V2000     
   21.4095   18.2083   21.6342 N   0  3  0  0  0  0  0  0  0  0  0  0
   20.8174   17.6531   22.2701 H   0  0  0  0  0  0  0  0  0  0  0  0
   22.3786   17.9121   21.8285 H   0  0  0  0  0  0  0  0  0  0  0  0
   21.2460   19.6858   21.9325 C   0  0  0  0  0  0  0  0  0  0  0  0
   20.2121   19.9614   21.7116 H   0  0  0  0  0  0  0  0  0  0  0  0
   21.8972   20.2358   21.2483 H   0  0  0  0  0  0  0  0  0  0  0  0
   21.5891   20.0706   23.3865 C   0  0  0  0  0  0  0  0  0  0  0  0
   22.6445   19.8376   23.5808 H   0  0  0  0  0  0  0  0  0  0  0  0
   21.4919   21.1591   23.4940 H   0  0  0  0  0  0  0  0  0  0  0  0
   20.7054   19.3716   24.4504 C   0  0  0  0  0  0  0  0  0  0  0  0
   21.0337   19.6996   25.4465 H   0  0  0  0  0  0  0  0  0  0  0  0
   20.8694   18.2862   24.4187 H   0  0  0  0  0  0  0  0  0  0  0  0
   19.1970   19.6782   24.2873 C   0  0  0  0  0  0  0  0  0  0  0  0
   19.0408   20.7658   24.2956 H   0  0  0  0  0  0  0  0  0  0  0  0
   18.8416   19.3135   23.3143 H   0  0  0  0  0  0  0  0  0  0  0  0
   18.3548   19.0295   25.4084 C   0  0  0  0  0  0  0  0  0  0  0  0
   18.6948   19.3954   26.3875 H   0  0  0  0  0  0  0  0  0  0  0  0
   18.5087   17.9413   25.4062 H   0  0  0  0  0  0  0  0  0  0  0  0
   16.8506   19.3339   25.2429 C   0  0  0  0  0  0  0  0  0  0  0  0
   16.6604   20.4146   25.2751 H   0  0  0  0  0  0  0  0  0  0  0  0
   16.2695   18.8658   26.0481 H   0  0  0  0  0  0  0  0  0  0  0  0
   16.4723   18.9485   24.2871 H   0  0  0  0  0  0  0  0  0  0  0  0
   21.0444   17.9284   20.1831 C   0  0  0  0  0  0  0  0  0  0  0  0
   21.7040   18.5037   19.5297 H   0  0  0  0  0  0  0  0  0  0  0  0
   21.1656   16.8615   19.9826 H   0  0  0  0  0  0  0  0  0  0  0  0
   20.0062   18.2206   20.0112 H   0  0  0  0  0  0  0  0  0  0  0  0
  1  2  1  0  0  0  0
  1  3  1  0  0  0  0
  1  4  1  0  0  0  0
  4  5  1  0  0  0  0
  4  6  1  0  0  0  0
  4  7  1  0  0  0  0
  7  8  1  0  0  0  0
  7  9  1  0  0  0  0
  7 10  1  0  0  0  0
 10 11  1  0  0  0  0
 10 12  1  0  0  0  0
 10 13  1  0  0  0  0
 13 14  1  0  0  0  0
 13 15  1  0  0  0  0
 13 16  1  0  0  0  0
 16 17  1  0  0  0  0
 16 18  1  0  0  0  0
 16 19  1  0  0  0  0
 19 20  1  0  0  0  0
 19 21  1  0  0  0  0
 19 22  1  0  0  0  0
  1 23  1  0  0  0  0
 23 24  1  0  0  0  0
 23 25  1  0  0  0  0
 23 26  1  0  0  0  0
M  END
> <VConfSearch Rank>
520

> <Conf_Id>
73

> <Delta U+W>
0.884

> <U+W>
22.726

> <U>
71.905

> <W>
-49.179

> <W(PB)>
-51.494

> <W(SA)>
2.315

> <Valence>
2.125

> <Coulomb>
69.686

> <VdW>
0.093

> <VdW6>
-6.766

> <VdW12>
6.859

> <Bond>
0.169

> <Angle>
0.621

> <Pdih>
1.336

> <Idih>
0.000

> <Tether>
0.000

$$$$
VeraChem MOL file


 26 25  0  0  0  0  0  0  0  0999 V2000     
   19.5308   22.0404   22.0959 N   0  3  0  0  0  0  0  0  0  0  0  0
   20.3412   22.4818   22.5576 H   0  0  0  0  0  0  0  0  0  0  0  0
   18.7213   22.2542   22.6991 H   0  0  0  0  0  0  0  0  0  0  0  0
   19.7335   20.5413   22.0045 C   0  0  0  0  0  0  0  0  0  0  0  0
   20.6017   20.3587   21.3662 H   0  0  0  0  0  0  0  0  0  0  0  0
   18.8530   20.1129   21.5189 H   0  0  0  0  0  0  0  0  0  0  0  0
   19.9471   19.8712   23.3739 C   0  0  0  0  0  0  0  0  0  0  0  0
   20.8228   20.3161   23.8653 H   0  0  0  0  0  0  0  0  0  0  0  0
   19.0799   20.0712   24.0174 H   0  0  0  0  0  0  0  0  0  0  0  0
   20.1490   18.3463   23.2317 C   0  0  0  0  0  0  0  0  0  0  0  0
   21.0142   18.1504   22.5829 H   0  0  0  0  0  0  0  0  0  0  0  0
   19.2734   17.9058   22.7346 H   0  0  0  0  0  0  0  0  0  0  0  0
   20.3644   17.6624   24.6011 C   0  0  0  0  0  0  0  0  0  0  0  0
   21.2400   18.1026   25.0982 H   0  0  0  0  0  0  0  0  0  0  0  0
   19.4994   17.8580   25.2499 H   0  0  0  0  0  0  0  0  0  0  0  0
   20.5663   16.1372   24.4585 C   0  0  0  0  0  0  0  0  0  0  0  0
   21.4322   15.9362   23.8122 H   0  0  0  0  0  0  0  0  0  0  0  0
   19.6918   15.6916   23.9639 H   0  0  0  0  0  0  0  0  0  0  0  0
   20.7811   15.4578   25.8279 C   0  0  0  0  0  0  0  0  0  0  0  0
   20.9225   14.3760   25.7060 H   0  0  0  0  0  0  0  0  0  0  0  0
   19.9158   15.6122   26.4855 H   0  0  0  0  0  0  0  0  0  0  0  0
   21.6698   15.8587   26.3326 H   0  0  0  0  0  0  0  0  0  0  0  0
   19.3274   22.6217   20.7035 C   0  0  0  0  0  0  0  0  0  0  0  0
   18.4461   22.1642   20.2485 H   0  0  0  0  0  0  0  0  0  0  0  0
   19.1828   23.7014   20.7837 H   0  0  0  0  0  0  0  0  0  0  0  0
   20.2095   22.4120   20.0944 H   0  0  0  0  0  0  0  0  0  0  0  0
  1  2  1  0  0  0  0
  1  3  1  0  0  0  0
  1  4  1  0  0  0  0
  4  5  1  0  0  0  0
  4  6  1  0  0  0  0
  4  7  1  0  0  0  0
  7  8  1  0  0  0  0
  7  9  1  0  0  0  0
  7 10  1  0  0  0  0
 10 11  1  0  0  0  0
 10 12  1  0  0  0  0
 10 13  1  0  0  0  0
 13 14  1  0  0  0  0
 13 15  1  0  0  0  0
 13 16  1  0  0  0  0
 16 17  1  0  0  0  0
 16 18  1  0  0  0  0
 16 19  1  0  0  0  0
 19 20  1  0  0  0  0
 19 21  1  0  0  0  0
 19 22  1  0  0  0  0
  1 23  1  0  0  0  0
 23 24  1  0  0  0  0
 23 25  1  0  0  0  0
 23 26  1  0  0  0  0
M  END
> <VConfSearch Rank>
521

> <Conf_Id>
11

> <Delta U+W>
0.000

> <U+W>
21.842

> <U>
70.357

> <W>
-48.515

> <W(PB)>
-50.856

> <W(SA)>
2.341

> <Valence>
1.714

> <Coulomb>
68.480

> <VdW>
0.163

> <VdW6>
-5.268

> <VdW12>
5.431

> <Bond>
0.126

> <Angle>
0.350

> <Pdih>
1.238

> <Idih>
0.000

> <Tether>
0.000

$$$$
VeraChem MOL file


 26 25  0  0  0  0  0  0  0  0999 V2000     
   19.2921   17.0061   25.8641 N   0  3  0  0  0  0  0  0  0  0  0  0
   19.1383   17.0791   26.8825 H   0  0  0  0  0  0  0  0  0  0  0  0
   20.1559   16.4508   25.7647 H   0  0  0  0  0  0  0  0  0  0  0  0
   19.4899   18.3947   25.2793 C   0  0  0  0  0  0  0  0  0  0  0  0
   20.2316   18.9051   25.8990 H   0  0  0  0  0  0  0  0  0  0  0  0
   18.5442   18.9352   25.3680 H   0  0  0  0  0  0  0  0  0  0  0  0
   19.9670   18.4097   23.8127 C   0  0  0  0  0  0  0  0  0  0  0  0
   20.8908   17.8227   23.7243 H   0  0  0  0  0  0  0  0  0  0  0  0
   19.2165   17.9274   23.1732 H   0  0  0  0  0  0  0  0  0  0  0  0
   20.2171   19.8510   23.3162 C   0  0  0  0  0  0  0  0  0  0  0  0
   20.9671   20.3344   23.9578 H   0  0  0  0  0  0  0  0  0  0  0  0
   19.2922   20.4367   23.4123 H   0  0  0  0  0  0  0  0  0  0  0  0
   20.6974   19.8803   21.8472 C   0  0  0  0  0  0  0  0  0  0  0  0
   21.6221   19.2945   21.7510 H   0  0  0  0  0  0  0  0  0  0  0  0
   19.9474   19.3972   21.2056 H   0  0  0  0  0  0  0  0  0  0  0  0
   20.9474   21.3220   21.3510 C   0  0  0  0  0  0  0  0  0  0  0  0
   21.6990   21.8088   21.9883 H   0  0  0  0  0  0  0  0  0  0  0  0
   20.0244   21.9116   21.4430 H   0  0  0  0  0  0  0  0  0  0  0  0
   21.4267   21.3473   19.8839 C   0  0  0  0  0  0  0  0  0  0  0  0
   21.5987   22.3787   19.5499 H   0  0  0  0  0  0  0  0  0  0  0  0
   20.6800   20.8975   19.2166 H   0  0  0  0  0  0  0  0  0  0  0  0
   22.3676   20.7940   19.7662 H   0  0  0  0  0  0  0  0  0  0  0  0
   18.1118   16.2947   25.2122 C   0  0  0  0  0  0  0  0  0  0  0  0
   18.3116   16.1637   24.1469 H   0  0  0  0  0  0  0  0  0  0  0  0
   17.9789   15.3182   25.6833 H   0  0  0  0  0  0  0  0  0  0  0  0
   17.2103   16.8958   25.3495 H   0  0  0  0  0  0  0  0  0  0  0  0
  1  2  1  0  0  0  0
  1  3  1  0  0  0  0
  1  4  1  0  0  0  0
  4  5  1  0  0  0  0
  4  6  1  0  0  0  0
  4  7  1  0  0  0  0
  7  8  1  0  0  0  0
  7  9  1  0  0  0  0
  7 10  1  0  0  0  0
 10 11  1  0  0  0  0
 10 12  1  0  0  0  0
 10 13  1  0  0  0  0
 13 14  1  0  0  0  0
 13 15  1  0  0  0  0
 13 16  1  0  0  0  0
 16 17  1  0  0  0  0
 16 18  1  0  0  0  0
 16 19  1  0  0  0  0
 19 20  1  0  0  0  0
 19 21  1  0  0  0  0
 19 22  1  0  0  0  0
  1 23  1  0  0  0  0
 23 24  1  0  0  0  0
 23 25  1  0  0  0  0
 23 26  1  0  0  0  0
M  END
> <VConfSearch Rank>
522

> <Conf_Id>
102

> <Delta U+W>
0.121

> <U+W>
21.963

> <U>
70.745

> <W>
-48.782

> <W(PB)>
-51.111

> <W(SA)>
2.329

> <Valence>
1.993

> <Coulomb>
68.323

> <VdW>
0.429

> <VdW6>
-5.973

> <VdW12>
6.402

> <Bond>
0.161

> <Angle>
0.472

> <Pdih>
1.360

> <Idih>
0.000

> <Tether>
0.000

$$$$
VeraChem MOL file


 26 25  0  0  0  0  0  0  0  0999 V2000     
   21.0131   21.0385   25.8552 N   0  3  0  0  0  0  0  0  0  0  0  0
   20.2490   20.7178   26.4699 H   0  0  0  0  0  0  0  0  0  0  0  0
   21.1125   22.0460   26.0577 H   0  0  0  0  0  0  0  0  0  0  0  0
   20.6292   20.8487   24.3971 C   0  0  0  0  0  0  0  0  0  0  0  0
   21.4768   21.1620   23.7824 H   0  0  0  0  0  0  0  0  0  0  0  0
   19.7936   21.5225   24.1912 H   0  0  0  0  0  0  0  0  0  0  0  0
   20.2155   19.4100   24.0260 C   0  0  0  0  0  0  0  0  0  0  0  0
   21.0564   18.7258   24.1983 H   0  0  0  0  0  0  0  0  0  0  0  0
   19.3967   19.0860   24.6819 H   0  0  0  0  0  0  0  0  0  0  0  0
   19.7685   19.3152   22.5504 C   0  0  0  0  0  0  0  0  0  0  0  0
   20.5883   19.6465   21.8977 H   0  0  0  0  0  0  0  0  0  0  0  0
   18.9278   20.0016   22.3775 H   0  0  0  0  0  0  0  0  0  0  0  0
   19.3498   17.8778   22.1654 C   0  0  0  0  0  0  0  0  0  0  0  0
   20.1903   17.1914   22.3378 H   0  0  0  0  0  0  0  0  0  0  0  0
   18.5303   17.5464   22.8182 H   0  0  0  0  0  0  0  0  0  0  0  0
   18.9026   17.7833   20.6895 C   0  0  0  0  0  0  0  0  0  0  0  0
   19.7199   18.1118   20.0322 H   0  0  0  0  0  0  0  0  0  0  0  0
   18.0599   18.4664   20.5125 H   0  0  0  0  0  0  0  0  0  0  0  0
   18.4855   16.3467   20.3087 C   0  0  0  0  0  0  0  0  0  0  0  0
   19.3190   15.6449   20.4425 H   0  0  0  0  0  0  0  0  0  0  0  0
   18.1713   16.2998   19.2579 H   0  0  0  0  0  0  0  0  0  0  0  0
   17.6460   16.0022   20.9267 H   0  0  0  0  0  0  0  0  0  0  0  0
   22.3138   20.3140   26.1833 C   0  0  0  0  0  0  0  0  0  0  0  0
   23.1064   20.6868   25.5309 H   0  0  0  0  0  0  0  0  0  0  0  0
   22.5751   20.5042   27.2266 H   0  0  0  0  0  0  0  0  0  0  0  0
   22.1797   19.2416   26.0285 H   0  0  0  0  0  0  0  0  0  0  0  0
  1  2  1  0  0  0  0
  1  3  1  0  0  0  0
  1  4  1  0  0  0  0
  4  5  1  0  0  0  0
  4  6  1  0  0  0  0
  4  7  1  0  0  0  0
  7  8  1  0  0  0  0
  7  9  1  0  0  0  0
  7 10  1  0  0  0  0
 10 11  1  0  0  0  0
 10 12  1  0  0  0  0
 10 13  1  0  0  0  0
 13 14  1  0  0  0  0
 13 15  1  0  0  0  0
 13 16  1  0  0  0  0
 16 17  1  0  0  0  0
 16 18  1  0  0  0  0
 16 19  1  0  0  0  0
 19 20  1  0  0  0  0
 19 21  1  0  0  0  0
 19 22  1  0  0  0  0
  1 23  1  0  0  0  0
 23 24  1  0  0  0  0
 23 25  1  0  0  0  0
 23 26  1  0  0  0  0
M  END
> <VConfSearch Rank>
523

> <Conf_Id>
37

> <Delta U+W>
0.125

> <U+W>
21.967

> <U>
70.745

> <W>
-48.778

> <W(PB)>
-51.115

> <W(SA)>
2.337

> <Valence>
1.993

> <Coulomb>
68.323

> <VdW>
0.429

> <VdW6>
-5.973

> <VdW12>
6.403

> <Bond>
0.161

> <Angle>
0.472

> <Pdih>
1.360

> <Idih>
0.000

> <Tether>
0.000

$$$$
VeraChem MOL file


 26 25  0  0  0  0  0  0  0  0999 V2000     
   19.8936   16.5329   21.6560 N   0  3  0  0  0  0  0  0  0  0  0  0
   20.7219   16.4435   21.0472 H   0  0  0  0  0  0  0  0  0  0  0  0
   19.1253   16.8263   21.0327 H   0  0  0  0  0  0  0  0  0  0  0  0
   20.1365   17.5860   22.7182 C   0  0  0  0  0  0  0  0  0  0  0  0
   20.9612   17.2431   23.3480 H   0  0  0  0  0  0  0  0  0  0  0  0
   19.2363   17.6508   23.3338 H   0  0  0  0  0  0  0  0  0  0  0  0
   20.4717   18.9725   22.1352 C   0  0  0  0  0  0  0  0  0  0  0  0
   21.3497   18.8828   21.4817 H   0  0  0  0  0  0  0  0  0  0  0  0
   19.6432   19.3179   21.5025 H   0  0  0  0  0  0  0  0  0  0  0  0
   20.7664   20.0275   23.2278 C   0  0  0  0  0  0  0  0  0  0  0  0
   21.1036   20.9481   22.7339 H   0  0  0  0  0  0  0  0  0  0  0  0
   21.6032   19.6845   23.8520 H   0  0  0  0  0  0  0  0  0  0  0  0
   19.5385   20.3368   24.1219 C   0  0  0  0  0  0  0  0  0  0  0  0
   18.7087   20.6992   23.4995 H   0  0  0  0  0  0  0  0  0  0  0  0
   19.1870   19.4112   24.5965 H   0  0  0  0  0  0  0  0  0  0  0  0
   19.8335   21.3674   25.2388 C   0  0  0  0  0  0  0  0  0  0  0  0
   20.6555   21.0049   25.8718 H   0  0  0  0  0  0  0  0  0  0  0  0
   18.9527   21.4400   25.8920 H   0  0  0  0  0  0  0  0  0  0  0  0
   20.1719   22.7778   24.7038 C   0  0  0  0  0  0  0  0  0  0  0  0
   21.1171   22.7830   24.1472 H   0  0  0  0  0  0  0  0  0  0  0  0
   20.2753   23.4885   25.5338 H   0  0  0  0  0  0  0  0  0  0  0  0
   19.3796   23.1496   24.0411 H   0  0  0  0  0  0  0  0  0  0  0  0
   19.5678   15.1991   22.3139 C   0  0  0  0  0  0  0  0  0  0  0  0
   18.6698   15.3102   22.9256 H   0  0  0  0  0  0  0  0  0  0  0  0
   19.3954   14.4498   21.5382 H   0  0  0  0  0  0  0  0  0  0  0  0
   20.4079   14.8936   22.9416 H   0  0  0  0  0  0  0  0  0  0  0  0
  1  2  1  0  0  0  0
  1  3  1  0  0  0  0
  1  4  1  0  0  0  0
  4  5  1  0  0  0  0
  4  6  1  0  0  0  0
  4  7  1  0  0  0  0
  7  8  1  0  0  0  0
  7  9  1  0  0  0  0
  7 10  1  0  0  0  0
 10 11  1  0  0  0  0
 10 12  1  0  0  0  0
 10 13  1  0  0  0  0
 13 14  1  0  0  0  0
 13 15  1  0  0  0  0
 13 16  1  0  0  0  0
 16 17  1  0  0  0  0
 16 18  1  0  0  0  0
 16 19  1  0  0  0  0
 19 20  1  0  0  0  0
 19 21  1  0  0  0  0
 19 22  1  0  0  0  0
  1 23  1  0  0  0  0
 23 24  1  0  0  0  0
 23 25  1  0  0  0  0
 23 26  1  0  0  0  0
M  END
> <VConfSearch Rank>
524

> <Conf_Id>
137

> <Delta U+W>
1.038

> <U+W>
22.880

> <U>
71.810

> <W>
-48.930

> <W(PB)>
-51.257

> <W(SA)>
2.327

> <Valence>
2.568

> <Coulomb>
68.877

> <VdW>
0.364

> <VdW6>
-6.470

> <VdW12>
6.834

> <Bond>
0.191

> <Angle>
0.752

> <Pdih>
1.626

> <Idih>
0.000

> <Tether>
0.000

$$$$
VeraChem MOL file


 26 25  0  0  0  0  0  0  0  0999 V2000     
   17.7196   17.3619   22.6848 N   0  3  0  0  0  0  0  0  0  0  0  0
   18.0681   17.3189   21.7145 H   0  0  0  0  0  0  0  0  0  0  0  0
   17.0393   18.1377   22.6981 H   0  0  0  0  0  0  0  0  0  0  0  0
   18.8615   17.6513   23.6385 C   0  0  0  0  0  0  0  0  0  0  0  0
   19.5608   16.8129   23.5884 H   0  0  0  0  0  0  0  0  0  0  0  0
   18.4499   17.6965   24.6500 H   0  0  0  0  0  0  0  0  0  0  0  0
   19.6022   18.9631   23.3215 C   0  0  0  0  0  0  0  0  0  0  0  0
   19.9941   18.9133   22.2979 H   0  0  0  0  0  0  0  0  0  0  0  0
   18.8924   19.8003   23.3571 H   0  0  0  0  0  0  0  0  0  0  0  0
   20.7548   19.2144   24.3223 C   0  0  0  0  0  0  0  0  0  0  0  0
   21.4906   18.4012   24.2521 H   0  0  0  0  0  0  0  0  0  0  0  0
   20.3533   19.1785   25.3447 H   0  0  0  0  0  0  0  0  0  0  0  0
   21.4651   20.5760   24.1217 C   0  0  0  0  0  0  0  0  0  0  0  0
   20.7326   21.3903   24.2095 H   0  0  0  0  0  0  0  0  0  0  0  0
   22.1826   20.7182   24.9417 H   0  0  0  0  0  0  0  0  0  0  0  0
   22.2145   20.6917   22.7729 C   0  0  0  0  0  0  0  0  0  0  0  0
   21.5044   20.6315   21.9376 H   0  0  0  0  0  0  0  0  0  0  0  0
   22.9104   19.8484   22.6613 H   0  0  0  0  0  0  0  0  0  0  0  0
   22.9978   22.0178   22.6687 C   0  0  0  0  0  0  0  0  0  0  0  0
   22.3242   22.8812   22.7470 H   0  0  0  0  0  0  0  0  0  0  0  0
   23.5205   22.0848   21.7058 H   0  0  0  0  0  0  0  0  0  0  0  0
   23.7490   22.0970   23.4654 H   0  0  0  0  0  0  0  0  0  0  0  0
   17.0439   16.0525   23.0680 C   0  0  0  0  0  0  0  0  0  0  0  0
   16.6545   16.1336   24.0852 H   0  0  0  0  0  0  0  0  0  0  0  0
   16.2238   15.8561   22.3737 H   0  0  0  0  0  0  0  0  0  0  0  0
   17.7744   15.2423   23.0147 H   0  0  0  0  0  0  0  0  0  0  0  0
  1  2  1  0  0  0  0
  1  3  1  0  0  0  0
  1  4  1  0  0  0  0
  4  5  1  0  0  0  0
  4  6  1  0  0  0  0
  4  7  1  0  0  0  0
  7  8  1  0  0  0  0
  7  9  1  0  0  0  0
  7 10  1  0  0  0  0
 10 11  1  0  0  0  0
 10 12  1  0  0  0  0
 10 13  1  0  0  0  0
 13 14  1  0  0  0  0
 13 15  1  0  0  0  0
 13 16  1  0  0  0  0
 16 17  1  0  0  0  0
 16 18  1  0  0  0  0
 16 19  1  0  0  0  0
 19 20  1  0  0  0  0
 19 21  1  0  0  0  0
 19 22  1  0  0  0  0
  1 23  1  0  0  0  0
 23 24  1  0  0  0  0
 23 25  1  0  0  0  0
 23 26  1  0  0  0  0
M  END
> <VConfSearch Rank>
525

> <Conf_Id>
35

> <Delta U+W>
0.670

> <U+W>
22.512

> <U>
71.348

> <W>
-48.837

> <W(PB)>
-51.150

> <W(SA)>
2.313

> <Valence>
2.262

> <Coulomb>
68.807

> <VdW>
0.280

> <VdW6>
-5.915

> <VdW12>
6.195

> <Bond>
0.164

> <Angle>
0.622

> <Pdih>
1.475

> <Idih>
0.000

> <Tether>
0.000

$$$$
VeraChem MOL file


 26 25  0  0  0  0  0  0  0  0999 V2000     
   19.5051   21.0236   21.1216 N   0  3  0  0  0  0  0  0  0  0  0  0
   18.5966   20.6196   20.8455 H   0  0  0  0  0  0  0  0  0  0  0  0
   20.2115   20.5161   20.5663 H   0  0  0  0  0  0  0  0  0  0  0  0
   19.7468   20.8041   22.6016 C   0  0  0  0  0  0  0  0  0  0  0  0
   18.9756   21.3495   23.1515 H   0  0  0  0  0  0  0  0  0  0  0  0
   20.7188   21.2376   22.8506 H   0  0  0  0  0  0  0  0  0  0  0  0
   19.7220   19.3198   23.0093 C   0  0  0  0  0  0  0  0  0  0  0  0
   18.7497   18.8847   22.7425 H   0  0  0  0  0  0  0  0  0  0  0  0
   20.4871   18.7799   22.4374 H   0  0  0  0  0  0  0  0  0  0  0  0
   19.9706   19.1488   24.5266 C   0  0  0  0  0  0  0  0  0  0  0  0
   19.2449   19.7628   25.0781 H   0  0  0  0  0  0  0  0  0  0  0  0
   20.9643   19.5398   24.7858 H   0  0  0  0  0  0  0  0  0  0  0  0
   19.8455   17.6843   25.0148 C   0  0  0  0  0  0  0  0  0  0  0  0
   19.9201   17.6755   26.1110 H   0  0  0  0  0  0  0  0  0  0  0  0
   18.8457   17.2988   24.7716 H   0  0  0  0  0  0  0  0  0  0  0  0
   20.9244   16.7415   24.4305 C   0  0  0  0  0  0  0  0  0  0  0  0
   21.9240   17.1533   24.6284 H   0  0  0  0  0  0  0  0  0  0  0  0
   20.8184   16.6730   23.3397 H   0  0  0  0  0  0  0  0  0  0  0  0
   20.8276   15.3233   25.0323 C   0  0  0  0  0  0  0  0  0  0  0  0
   20.9704   15.3449   26.1206 H   0  0  0  0  0  0  0  0  0  0  0  0
   21.5974   14.6675   24.6052 H   0  0  0  0  0  0  0  0  0  0  0  0
   19.8483   14.8725   24.8249 H   0  0  0  0  0  0  0  0  0  0  0  0
   19.5458   22.5122   20.8052 C   0  0  0  0  0  0  0  0  0  0  0  0
   20.5266   22.9100   21.0748 H   0  0  0  0  0  0  0  0  0  0  0  0
   19.3703   22.6563   19.7368 H   0  0  0  0  0  0  0  0  0  0  0  0
   18.7689   23.0226   21.3787 H   0  0  0  0  0  0  0  0  0  0  0  0
  1  2  1  0  0  0  0
  1  3  1  0  0  0  0
  1  4  1  0  0  0  0
  4  5  1  0  0  0  0
  4  6  1  0  0  0  0
  4  7  1  0  0  0  0
  7  8  1  0  0  0  0
  7  9  1  0  0  0  0
  7 10  1  0  0  0  0
 10 11  1  0  0  0  0
 10 12  1  0  0  0  0
 10 13  1  0  0  0  0
 13 14  1  0  0  0  0
 13 15  1  0  0  0  0
 13 16  1  0  0  0  0
 16 17  1  0  0  0  0
 16 18  1  0  0  0  0
 16 19  1  0  0  0  0
 19 20  1  0  0  0  0
 19 21  1  0  0  0  0
 19 22  1  0  0  0  0
  1 23  1  0  0  0  0
 23 24  1  0  0  0  0
 23 25  1  0  0  0  0
 23 26  1  0  0  0  0
M  END
> <VConfSearch Rank>
526

> <Conf_Id>
36

> <Delta U+W>
0.662

> <U+W>
22.504

> <U>
71.348

> <W>
-48.844

> <W(PB)>
-51.157

> <W(SA)>
2.313

> <Valence>
2.262

> <Coulomb>
68.807

> <VdW>
0.280

> <VdW6>
-5.916

> <VdW12>
6.195

> <Bond>
0.164

> <Angle>
0.622

> <Pdih>
1.475

> <Idih>
0.000

> <Tether>
0.000

$$$$
VeraChem MOL file


 26 25  0  0  0  0  0  0  0  0999 V2000     
   21.6157   19.5029   20.6820 N   0  3  0  0  0  0  0  0  0  0  0  0
   22.5331   19.7266   21.0981 H   0  0  0  0  0  0  0  0  0  0  0  0
   21.3590   20.3310   20.1223 H   0  0  0  0  0  0  0  0  0  0  0  0
   20.5895   19.2703   21.7725 C   0  0  0  0  0  0  0  0  0  0  0  0
   20.9020   18.3914   22.3413 H   0  0  0  0  0  0  0  0  0  0  0  0
   19.6335   19.0481   21.2916 H   0  0  0  0  0  0  0  0  0  0  0  0
   20.4251   20.4738   22.7206 C   0  0  0  0  0  0  0  0  0  0  0  0
   21.3860   20.6982   23.2025 H   0  0  0  0  0  0  0  0  0  0  0  0
   20.1541   21.3602   22.1317 H   0  0  0  0  0  0  0  0  0  0  0  0
   19.3436   20.2396   23.8016 C   0  0  0  0  0  0  0  0  0  0  0  0
   18.3774   20.0425   23.3165 H   0  0  0  0  0  0  0  0  0  0  0  0
   19.2172   21.1656   24.3797 H   0  0  0  0  0  0  0  0  0  0  0  0
   19.6895   19.0802   24.7670 C   0  0  0  0  0  0  0  0  0  0  0  0
   19.7702   18.1379   24.2088 H   0  0  0  0  0  0  0  0  0  0  0  0
   20.6713   19.2640   25.2250 H   0  0  0  0  0  0  0  0  0  0  0  0
   18.6267   18.9210   25.8771 C   0  0  0  0  0  0  0  0  0  0  0  0
   17.6420   18.7376   25.4245 H   0  0  0  0  0  0  0  0  0  0  0  0
   18.5433   19.8561   26.4486 H   0  0  0  0  0  0  0  0  0  0  0  0
   18.9718   17.7634   26.8383 C   0  0  0  0  0  0  0  0  0  0  0  0
   19.0277   16.8075   26.3014 H   0  0  0  0  0  0  0  0  0  0  0  0
   18.2064   17.6666   27.6191 H   0  0  0  0  0  0  0  0  0  0  0  0
   19.9370   17.9349   27.3324 H   0  0  0  0  0  0  0  0  0  0  0  0
   21.7177   18.2696   19.7953 C   0  0  0  0  0  0  0  0  0  0  0  0
   20.7443   18.0725   19.3408 H   0  0  0  0  0  0  0  0  0  0  0  0
   22.4597   18.4504   19.0142 H   0  0  0  0  0  0  0  0  0  0  0  0
   22.0226   17.4147   20.4028 H   0  0  0  0  0  0  0  0  0  0  0  0
  1  2  1  0  0  0  0
  1  3  1  0  0  0  0
  1  4  1  0  0  0  0
  4  5  1  0  0  0  0
  4  6  1  0  0  0  0
  4  7  1  0  0  0  0
  7  8  1  0  0  0  0
  7  9  1  0  0  0  0
  7 10  1  0  0  0  0
 10 11  1  0  0  0  0
 10 12  1  0  0  0  0
 10 13  1  0  0  0  0
 13 14  1  0  0  0  0
 13 15  1  0  0  0  0
 13 16  1  0  0  0  0
 16 17  1  0  0  0  0
 16 18  1  0  0  0  0
 16 19  1  0  0  0  0
 19 20  1  0  0  0  0
 19 21  1  0  0  0  0
 19 22  1  0  0  0  0
  1 23  1  0  0  0  0
 23 24  1  0  0  0  0
 23 25  1  0  0  0  0
 23 26  1  0  0  0  0
M  END
> <VConfSearch Rank>
527

> <Conf_Id>
46

> <Delta U+W>
0.496

> <U+W>
22.338

> <U>
71.138

> <W>
-48.799

> <W(PB)>
-51.136

> <W(SA)>
2.337

> <Valence>
2.016

> <Coulomb>
68.932

> <VdW>
0.190

> <VdW6>
-5.902

> <VdW12>
6.092

> <Bond>
0.149

> <Angle>
0.477

> <Pdih>
1.390

> <Idih>
0.000

> <Tether>
0.000

$$$$
VeraChem MOL file


 26 25  0  0  0  0  0  0  0  0999 V2000     
   22.3846   17.3055   22.9631 N   0  3  0  0  0  0  0  0  0  0  0  0
   23.2761   17.7688   22.7273 H   0  0  0  0  0  0  0  0  0  0  0  0
   22.0790   16.8401   22.0943 H   0  0  0  0  0  0  0  0  0  0  0  0
   21.3587   18.3341   23.3943 C   0  0  0  0  0  0  0  0  0  0  0  0
   21.7241   18.8096   24.3080 H   0  0  0  0  0  0  0  0  0  0  0  0
   20.4332   17.8028   23.6283 H   0  0  0  0  0  0  0  0  0  0  0  0
   21.0871   19.4087   22.3239 C   0  0  0  0  0  0  0  0  0  0  0  0
   22.0320   19.9050   22.0658 H   0  0  0  0  0  0  0  0  0  0  0  0
   20.7216   18.9309   21.4052 H   0  0  0  0  0  0  0  0  0  0  0  0
   20.0713   20.4768   22.7938 C   0  0  0  0  0  0  0  0  0  0  0  0
   19.9961   21.2550   22.0217 H   0  0  0  0  0  0  0  0  0  0  0  0
   20.4524   20.9723   23.6976 H   0  0  0  0  0  0  0  0  0  0  0  0
   18.6631   19.8968   23.0705 C   0  0  0  0  0  0  0  0  0  0  0  0
   18.2991   19.3733   22.1756 H   0  0  0  0  0  0  0  0  0  0  0  0
   18.7152   19.1517   23.8757 H   0  0  0  0  0  0  0  0  0  0  0  0
   17.6557   20.9994   23.4660 C   0  0  0  0  0  0  0  0  0  0  0  0
   17.5887   21.7469   22.6631 H   0  0  0  0  0  0  0  0  0  0  0  0
   18.0153   21.5270   24.3606 H   0  0  0  0  0  0  0  0  0  0  0  0
   16.2521   20.4197   23.7433 C   0  0  0  0  0  0  0  0  0  0  0  0
   15.8510   19.9143   22.8552 H   0  0  0  0  0  0  0  0  0  0  0  0
   15.5513   21.2174   24.0219 H   0  0  0  0  0  0  0  0  0  0  0  0
   16.2801   19.6937   24.5663 H   0  0  0  0  0  0  0  0  0  0  0  0
   22.5910   16.2833   24.0723 C   0  0  0  0  0  0  0  0  0  0  0  0
   23.3320   15.5487   23.7491 H   0  0  0  0  0  0  0  0  0  0  0  0
   22.9455   16.7943   24.9702 H   0  0  0  0  0  0  0  0  0  0  0  0
   21.6426   15.7833   24.2810 H   0  0  0  0  0  0  0  0  0  0  0  0
  1  2  1  0  0  0  0
  1  3  1  0  0  0  0
  1  4  1  0  0  0  0
  4  5  1  0  0  0  0
  4  6  1  0  0  0  0
  4  7  1  0  0  0  0
  7  8  1  0  0  0  0
  7  9  1  0  0  0  0
  7 10  1  0  0  0  0
 10 11  1  0  0  0  0
 10 12  1  0  0  0  0
 10 13  1  0  0  0  0
 13 14  1  0  0  0  0
 13 15  1  0  0  0  0
 13 16  1  0  0  0  0
 16 17  1  0  0  0  0
 16 18  1  0  0  0  0
 16 19  1  0  0  0  0
 19 20  1  0  0  0  0
 19 21  1  0  0  0  0
 19 22  1  0  0  0  0
  1 23  1  0  0  0  0
 23 24  1  0  0  0  0
 23 25  1  0  0  0  0
 23 26  1  0  0  0  0
M  END
> <VConfSearch Rank>
528

> <Conf_Id>
45

> <Delta U+W>
0.471

> <U+W>
22.313

> <U>
71.138

> <W>
-48.825

> <W(PB)>
-51.169

> <W(SA)>
2.344

> <Valence>
2.016

> <Coulomb>
68.932

> <VdW>
0.190

> <VdW6>
-5.902

> <VdW12>
6.092

> <Bond>
0.149

> <Angle>
0.477

> <Pdih>
1.390

> <Idih>
0.000

> <Tether>
0.000

$$$$
VeraChem MOL file


 26 25  0  0  0  0  0  0  0  0999 V2000     
   20.3574   21.3580   22.0451 N   0  3  0  0  0  0  0  0  0  0  0  0
   20.6532   20.6038   21.4073 H   0  0  0  0  0  0  0  0  0  0  0  0
   21.1619   21.5238   22.6696 H   0  0  0  0  0  0  0  0  0  0  0  0
   19.1528   20.9143   22.8526 C   0  0  0  0  0  0  0  0  0  0  0  0
   18.3270   20.7402   22.1583 H   0  0  0  0  0  0  0  0  0  0  0  0
   18.8755   21.7403   23.5124 H   0  0  0  0  0  0  0  0  0  0  0  0
   19.3982   19.6471   23.6950 C   0  0  0  0  0  0  0  0  0  0  0  0
   20.2273   19.8330   24.3893 H   0  0  0  0  0  0  0  0  0  0  0  0
   18.5077   19.4617   24.3101 H   0  0  0  0  0  0  0  0  0  0  0  0
   19.6888   18.3999   22.8229 C   0  0  0  0  0  0  0  0  0  0  0  0
   20.6275   18.5362   22.2694 H   0  0  0  0  0  0  0  0  0  0  0  0
   18.8961   18.2998   22.0684 H   0  0  0  0  0  0  0  0  0  0  0  0
   19.7621   17.0832   23.6348 C   0  0  0  0  0  0  0  0  0  0  0  0
   18.8163   16.9282   24.1722 H   0  0  0  0  0  0  0  0  0  0  0  0
   19.8565   16.2447   22.9308 H   0  0  0  0  0  0  0  0  0  0  0  0
   20.9432   17.0367   24.6332 C   0  0  0  0  0  0  0  0  0  0  0  0
   20.8286   17.8209   25.3933 H   0  0  0  0  0  0  0  0  0  0  0  0
   21.8848   17.2405   24.1044 H   0  0  0  0  0  0  0  0  0  0  0  0
   21.0392   15.6668   25.3382 C   0  0  0  0  0  0  0  0  0  0  0  0
   20.1226   15.4475   25.9012 H   0  0  0  0  0  0  0  0  0  0  0  0
   21.8797   15.6521   26.0442 H   0  0  0  0  0  0  0  0  0  0  0  0
   21.1959   14.8585   24.6120 H   0  0  0  0  0  0  0  0  0  0  0  0
   20.0202   22.6186   21.2610 C   0  0  0  0  0  0  0  0  0  0  0  0
   19.7406   23.4112   21.9585 H   0  0  0  0  0  0  0  0  0  0  0  0
   20.8952   22.9265   20.6842 H   0  0  0  0  0  0  0  0  0  0  0  0
   19.1879   22.4094   20.5854 H   0  0  0  0  0  0  0  0  0  0  0  0
  1  2  1  0  0  0  0
  1  3  1  0  0  0  0
  1  4  1  0  0  0  0
  4  5  1  0  0  0  0
  4  6  1  0  0  0  0
  4  7  1  0  0  0  0
  7  8  1  0  0  0  0
  7  9  1  0  0  0  0
  7 10  1  0  0  0  0
 10 11  1  0  0  0  0
 10 12  1  0  0  0  0
 10 13  1  0  0  0  0
 13 14  1  0  0  0  0
 13 15  1  0  0  0  0
 13 16  1  0  0  0  0
 16 17  1  0  0  0  0
 16 18  1  0  0  0  0
 16 19  1  0  0  0  0
 19 20  1  0  0  0  0
 19 21  1  0  0  0  0
 19 22  1  0  0  0  0
  1 23  1  0  0  0  0
 23 24  1  0  0  0  0
 23 25  1  0  0  0  0
 23 26  1  0  0  0  0
M  END
> <VConfSearch Rank>
529

> <Conf_Id>
143

> <Delta U+W>
0.915

> <U+W>
22.757

> <U>
71.994

> <W>
-49.237

> <W(PB)>
-51.537

> <W(SA)>
2.300

> <Valence>
2.376

> <Coulomb>
69.315

> <VdW>
0.303

> <VdW6>
-6.508

> <VdW12>
6.810

> <Bond>
0.182

> <Angle>
0.660

> <Pdih>
1.534

> <Idih>
0.000

> <Tether>
0.000

$$$$
VeraChem MOL file


 26 25  0  0  0  0  0  0  0  0999 V2000     
   18.4893   20.9130   24.3141 N   0  3  0  0  0  0  0  0  0  0  0  0
   19.4097   21.2343   24.6498 H   0  0  0  0  0  0  0  0  0  0  0  0
   18.1275   20.2905   25.0532 H   0  0  0  0  0  0  0  0  0  0  0  0
   18.6463   20.1449   23.0157 C   0  0  0  0  0  0  0  0  0  0  0  0
   19.0395   20.8316   22.2619 H   0  0  0  0  0  0  0  0  0  0  0  0
   17.6493   19.8270   22.7003 H   0  0  0  0  0  0  0  0  0  0  0  0
   19.5641   18.9110   23.1231 C   0  0  0  0  0  0  0  0  0  0  0  0
   19.1839   18.2368   23.9020 H   0  0  0  0  0  0  0  0  0  0  0  0
   19.5057   18.3670   22.1725 H   0  0  0  0  0  0  0  0  0  0  0  0
   21.0384   19.2848   23.4122 C   0  0  0  0  0  0  0  0  0  0  0  0
   21.0867   19.9191   24.3070 H   0  0  0  0  0  0  0  0  0  0  0  0
   21.4281   19.8941   22.5849 H   0  0  0  0  0  0  0  0  0  0  0  0
   21.9736   18.0687   23.6401 C   0  0  0  0  0  0  0  0  0  0  0  0
   22.9725   18.4606   23.8770 H   0  0  0  0  0  0  0  0  0  0  0  0
   21.6571   17.5106   24.5320 H   0  0  0  0  0  0  0  0  0  0  0  0
   22.1073   17.1112   22.4276 C   0  0  0  0  0  0  0  0  0  0  0  0
   23.1391   16.7345   22.3913 H   0  0  0  0  0  0  0  0  0  0  0  0
   21.9539   17.6600   21.4879 H   0  0  0  0  0  0  0  0  0  0  0  0
   21.1582   15.8919   22.5002 C   0  0  0  0  0  0  0  0  0  0  0  0
   20.1039   16.1890   22.5187 H   0  0  0  0  0  0  0  0  0  0  0  0
   21.3561   15.2948   23.3999 H   0  0  0  0  0  0  0  0  0  0  0  0
   21.3043   15.2393   21.6298 H   0  0  0  0  0  0  0  0  0  0  0  0
   17.5544   22.0963   24.1064 C   0  0  0  0  0  0  0  0  0  0  0  0
   16.5779   21.7299   23.7824 H   0  0  0  0  0  0  0  0  0  0  0  0
   17.4504   22.6403   25.0479 H   0  0  0  0  0  0  0  0  0  0  0  0
   17.9740   22.7559   23.3436 H   0  0  0  0  0  0  0  0  0  0  0  0
  1  2  1  0  0  0  0
  1  3  1  0  0  0  0
  1  4  1  0  0  0  0
  4  5  1  0  0  0  0
  4  6  1  0  0  0  0
  4  7  1  0  0  0  0
  7  8  1  0  0  0  0
  7  9  1  0  0  0  0
  7 10  1  0  0  0  0
 10 11  1  0  0  0  0
 10 12  1  0  0  0  0
 10 13  1  0  0  0  0
 13 14  1  0  0  0  0
 13 15  1  0  0  0  0
 13 16  1  0  0  0  0
 16 17  1  0  0  0  0
 16 18  1  0  0  0  0
 16 19  1  0  0  0  0
 19 20  1  0  0  0  0
 19 21  1  0  0  0  0
 19 22  1  0  0  0  0
  1 23  1  0  0  0  0
 23 24  1  0  0  0  0
 23 25  1  0  0  0  0
 23 26  1  0  0  0  0
M  END
> <VConfSearch Rank>
530

> <Conf_Id>
76

> <Delta U+W>
3.468

> <U+W>
25.310

> <U>
74.594

> <W>
-49.283

> <W(PB)>
-51.537

> <W(SA)>
2.253

> <Valence>
4.886

> <Coulomb>
69.332

> <VdW>
0.376

> <VdW6>
-7.329

> <VdW12>
7.705

> <Bond>
0.232

> <Angle>
1.251

> <Pdih>
3.403

> <Idih>
0.000

> <Tether>
0.000

$$$$
VeraChem MOL file


 26 25  0  0  0  0  0  0  0  0999 V2000     
   22.1594   20.6200   22.3073 N   0  3  0  0  0  0  0  0  0  0  0  0
   21.8280   20.2760   21.3926 H   0  0  0  0  0  0  0  0  0  0  0  0
   22.9916   20.0517   22.5295 H   0  0  0  0  0  0  0  0  0  0  0  0
   21.0901   20.4160   23.3618 C   0  0  0  0  0  0  0  0  0  0  0  0
   20.2268   21.0269   23.0863 H   0  0  0  0  0  0  0  0  0  0  0  0
   21.4829   20.7839   24.3130 H   0  0  0  0  0  0  0  0  0  0  0  0
   20.6570   18.9466   23.5138 C   0  0  0  0  0  0  0  0  0  0  0  0
   20.2887   18.5783   22.5499 H   0  0  0  0  0  0  0  0  0  0  0  0
   21.5318   18.3360   23.7739 H   0  0  0  0  0  0  0  0  0  0  0  0
   19.5736   18.7895   24.6079 C   0  0  0  0  0  0  0  0  0  0  0  0
   18.7144   19.4397   24.3926 H   0  0  0  0  0  0  0  0  0  0  0  0
   19.9941   19.1478   25.5580 H   0  0  0  0  0  0  0  0  0  0  0  0
   19.0981   17.3258   24.8029 C   0  0  0  0  0  0  0  0  0  0  0  0
   19.9100   16.6254   24.5633 H   0  0  0  0  0  0  0  0  0  0  0  0
   18.8839   17.1753   25.8701 H   0  0  0  0  0  0  0  0  0  0  0  0
   17.8182   16.9480   24.0138 C   0  0  0  0  0  0  0  0  0  0  0  0
   16.9840   17.5861   24.3375 H   0  0  0  0  0  0  0  0  0  0  0  0
   17.5353   15.9202   24.2811 H   0  0  0  0  0  0  0  0  0  0  0  0
   17.9653   17.0371   22.4790 C   0  0  0  0  0  0  0  0  0  0  0  0
   18.8329   16.4627   22.1295 H   0  0  0  0  0  0  0  0  0  0  0  0
   18.0771   18.0772   22.1489 H   0  0  0  0  0  0  0  0  0  0  0  0
   17.0733   16.6316   21.9844 H   0  0  0  0  0  0  0  0  0  0  0  0
   22.5275   22.0948   22.2214 C   0  0  0  0  0  0  0  0  0  0  0  0
   21.6396   22.6715   21.9531 H   0  0  0  0  0  0  0  0  0  0  0  0
   22.9061   22.4274   23.1905 H   0  0  0  0  0  0  0  0  0  0  0  0
   23.2981   22.2279   21.4589 H   0  0  0  0  0  0  0  0  0  0  0  0
  1  2  1  0  0  0  0
  1  3  1  0  0  0  0
  1  4  1  0  0  0  0
  4  5  1  0  0  0  0
  4  6  1  0  0  0  0
  4  7  1  0  0  0  0
  7  8  1  0  0  0  0
  7  9  1  0  0  0  0
  7 10  1  0  0  0  0
 10 11  1  0  0  0  0
 10 12  1  0  0  0  0
 10 13  1  0  0  0  0
 13 14  1  0  0  0  0
 13 15  1  0  0  0  0
 13 16  1  0  0  0  0
 16 17  1  0  0  0  0
 16 18  1  0  0  0  0
 16 19  1  0  0  0  0
 19 20  1  0  0  0  0
 19 21  1  0  0  0  0
 19 22  1  0  0  0  0
  1 23  1  0  0  0  0
 23 24  1  0  0  0  0
 23 25  1  0  0  0  0
 23 26  1  0  0  0  0
M  END
> <VConfSearch Rank>
531

> <Conf_Id>
123

> <Delta U+W>
3.101

> <U+W>
24.943

> <U>
74.070

> <W>
-49.127

> <W(PB)>
-51.421

> <W(SA)>
2.295

> <Valence>
4.690

> <Coulomb>
69.115

> <VdW>
0.266

> <VdW6>
-6.809

> <VdW12>
7.075

> <Bond>
0.212

> <Angle>
1.133

> <Pdih>
3.345

> <Idih>
0.000

> <Tether>
0.000

$$$$
VeraChem MOL file


 26 25  0  0  0  0  0  0  0  0999 V2000     
   21.4445   16.8519   23.5579 N   0  3  0  0  0  0  0  0  0  0  0  0
   20.6990   16.1417   23.6248 H   0  0  0  0  0  0  0  0  0  0  0  0
   21.5047   17.2786   24.4946 H   0  0  0  0  0  0  0  0  0  0  0  0
   21.0728   17.9030   22.5298 C   0  0  0  0  0  0  0  0  0  0  0  0
   21.0213   17.4080   21.5567 H   0  0  0  0  0  0  0  0  0  0  0  0
   21.8785   18.6406   22.4951 H   0  0  0  0  0  0  0  0  0  0  0  0
   19.7336   18.6115   22.8136 C   0  0  0  0  0  0  0  0  0  0  0  0
   19.5051   19.2643   21.9637 H   0  0  0  0  0  0  0  0  0  0  0  0
   18.9282   17.8661   22.8535 H   0  0  0  0  0  0  0  0  0  0  0  0
   19.7586   19.4314   24.1289 C   0  0  0  0  0  0  0  0  0  0  0  0
   20.6202   20.1133   24.1384 H   0  0  0  0  0  0  0  0  0  0  0  0
   19.9081   18.7401   24.9690 H   0  0  0  0  0  0  0  0  0  0  0  0
   18.4504   20.2251   24.3840 C   0  0  0  0  0  0  0  0  0  0  0  0
   17.5947   19.7075   23.9290 H   0  0  0  0  0  0  0  0  0  0  0  0
   18.2548   20.2244   25.4653 H   0  0  0  0  0  0  0  0  0  0  0  0
   18.4880   21.7036   23.9190 C   0  0  0  0  0  0  0  0  0  0  0  0
   19.2827   22.2389   24.4572 H   0  0  0  0  0  0  0  0  0  0  0  0
   17.5449   22.1854   24.2129 H   0  0  0  0  0  0  0  0  0  0  0  0
   18.6852   21.8887   22.3984 C   0  0  0  0  0  0  0  0  0  0  0  0
   17.9399   21.3180   21.8295 H   0  0  0  0  0  0  0  0  0  0  0  0
   19.6863   21.5690   22.0840 H   0  0  0  0  0  0  0  0  0  0  0  0
   18.5785   22.9462   22.1240 H   0  0  0  0  0  0  0  0  0  0  0  0
   22.7691   16.2034   23.1807 C   0  0  0  0  0  0  0  0  0  0  0  0
   23.5472   16.9691   23.1474 H   0  0  0  0  0  0  0  0  0  0  0  0
   23.0248   15.4496   23.9287 H   0  0  0  0  0  0  0  0  0  0  0  0
   22.6716   15.7318   22.2003 H   0  0  0  0  0  0  0  0  0  0  0  0
  1  2  1  0  0  0  0
  1  3  1  0  0  0  0
  1  4  1  0  0  0  0
  4  5  1  0  0  0  0
  4  6  1  0  0  0  0
  4  7  1  0  0  0  0
  7  8  1  0  0  0  0
  7  9  1  0  0  0  0
  7 10  1  0  0  0  0
 10 11  1  0  0  0  0
 10 12  1  0  0  0  0
 10 13  1  0  0  0  0
 13 14  1  0  0  0  0
 13 15  1  0  0  0  0
 13 16  1  0  0  0  0
 16 17  1  0  0  0  0
 16 18  1  0  0  0  0
 16 19  1  0  0  0  0
 19 20  1  0  0  0  0
 19 21  1  0  0  0  0
 19 22  1  0  0  0  0
  1 23  1  0  0  0  0
 23 24  1  0  0  0  0
 23 25  1  0  0  0  0
 23 26  1  0  0  0  0
M  END
> <VConfSearch Rank>
532

> <Conf_Id>
111

> <Delta U+W>
3.383

> <U+W>
25.225

> <U>
74.516

> <W>
-49.292

> <W(PB)>
-51.558

> <W(SA)>
2.266

> <Valence>
4.842

> <Coulomb>
69.333

> <VdW>
0.342

> <VdW6>
-7.369

> <VdW12>
7.711

> <Bond>
0.232

> <Angle>
1.153

> <Pdih>
3.457

> <Idih>
0.000

> <Tether>
0.000

$$$$
VeraChem MOL file


 26 25  0  0  0  0  0  0  0  0999 V2000     
   18.0029   20.3985   23.2664 N   0  3  0  0  0  0  0  0  0  0  0  0
   18.0391   21.2825   23.7973 H   0  0  0  0  0  0  0  0  0  0  0  0
   18.2095   19.6556   23.9510 H   0  0  0  0  0  0  0  0  0  0  0  0
   19.0544   20.4028   22.1742 C   0  0  0  0  0  0  0  0  0  0  0  0
   18.8061   21.2086   21.4788 H   0  0  0  0  0  0  0  0  0  0  0  0
   18.9829   19.4557   21.6343 H   0  0  0  0  0  0  0  0  0  0  0  0
   20.4936   20.6005   22.6938 C   0  0  0  0  0  0  0  0  0  0  0  0
   21.1758   20.6371   21.8341 H   0  0  0  0  0  0  0  0  0  0  0  0
   20.5663   21.5810   23.1829 H   0  0  0  0  0  0  0  0  0  0  0  0
   20.9704   19.5017   23.6774 C   0  0  0  0  0  0  0  0  0  0  0  0
   20.3485   19.5134   24.5822 H   0  0  0  0  0  0  0  0  0  0  0  0
   21.9874   19.7560   24.0033 H   0  0  0  0  0  0  0  0  0  0  0  0
   20.9653   18.0817   23.0557 C   0  0  0  0  0  0  0  0  0  0  0  0
   19.9535   17.8354   22.7078 H   0  0  0  0  0  0  0  0  0  0  0  0
   21.6103   18.0646   22.1663 H   0  0  0  0  0  0  0  0  0  0  0  0
   21.4160   16.9760   24.0411 C   0  0  0  0  0  0  0  0  0  0  0  0
   21.2728   15.9977   23.5611 H   0  0  0  0  0  0  0  0  0  0  0  0
   20.7668   16.9803   24.9278 H   0  0  0  0  0  0  0  0  0  0  0  0
   22.8936   17.1028   24.4774 C   0  0  0  0  0  0  0  0  0  0  0  0
   23.0629   18.0076   25.0740 H   0  0  0  0  0  0  0  0  0  0  0  0
   23.5615   17.1340   23.6068 H   0  0  0  0  0  0  0  0  0  0  0  0
   23.1868   16.2431   25.0938 H   0  0  0  0  0  0  0  0  0  0  0  0
   16.6227   20.1954   22.6573 C   0  0  0  0  0  0  0  0  0  0  0  0
   15.8760   20.1933   23.4545 H   0  0  0  0  0  0  0  0  0  0  0  0
   16.4150   21.0096   21.9595 H   0  0  0  0  0  0  0  0  0  0  0  0
   16.6006   19.2400   22.1285 H   0  0  0  0  0  0  0  0  0  0  0  0
  1  2  1  0  0  0  0
  1  3  1  0  0  0  0
  1  4  1  0  0  0  0
  4  5  1  0  0  0  0
  4  6  1  0  0  0  0
  4  7  1  0  0  0  0
  7  8  1  0  0  0  0
  7  9  1  0  0  0  0
  7 10  1  0  0  0  0
 10 11  1  0  0  0  0
 10 12  1  0  0  0  0
 10 13  1  0  0  0  0
 13 14  1  0  0  0  0
 13 15  1  0  0  0  0
 13 16  1  0  0  0  0
 16 17  1  0  0  0  0
 16 18  1  0  0  0  0
 16 19  1  0  0  0  0
 19 20  1  0  0  0  0
 19 21  1  0  0  0  0
 19 22  1  0  0  0  0
  1 23  1  0  0  0  0
 23 24  1  0  0  0  0
 23 25  1  0  0  0  0
 23 26  1  0  0  0  0
M  END
> <VConfSearch Rank>
533

> <Conf_Id>
126

> <Delta U+W>
1.519

> <U+W>
23.361

> <U>
72.579

> <W>
-49.218

> <W(PB)>
-51.496

> <W(SA)>
2.279

> <Valence>
2.678

> <Coulomb>
69.622

> <VdW>
0.279

> <VdW6>
-7.328

> <VdW12>
7.608

> <Bond>
0.212

> <Angle>
0.911

> <Pdih>
1.555

> <Idih>
0.000

> <Tether>
0.000

$$$$
VeraChem MOL file


 26 25  0  0  0  0  0  0  0  0999 V2000     
   21.7234   18.1000   24.6758 N   0  3  0  0  0  0  0  0  0  0  0  0
   21.9356   18.5785   23.7875 H   0  0  0  0  0  0  0  0  0  0  0  0
   21.8916   17.0977   24.4979 H   0  0  0  0  0  0  0  0  0  0  0  0
   20.2722   18.3265   25.0519 C   0  0  0  0  0  0  0  0  0  0  0  0
   20.1346   19.3947   25.2351 H   0  0  0  0  0  0  0  0  0  0  0  0
   20.0863   17.7955   25.9889 H   0  0  0  0  0  0  0  0  0  0  0  0
   19.2681   17.8461   23.9835 C   0  0  0  0  0  0  0  0  0  0  0  0
   19.3771   16.7615   23.8515 H   0  0  0  0  0  0  0  0  0  0  0  0
   18.2495   18.0067   24.3610 H   0  0  0  0  0  0  0  0  0  0  0  0
   19.4193   18.5464   22.6091 C   0  0  0  0  0  0  0  0  0  0  0  0
   18.6814   18.1107   21.9232 H   0  0  0  0  0  0  0  0  0  0  0  0
   20.4046   18.3209   22.1802 H   0  0  0  0  0  0  0  0  0  0  0  0
   19.2173   20.0816   22.6806 C   0  0  0  0  0  0  0  0  0  0  0  0
   18.2200   20.3055   23.0836 H   0  0  0  0  0  0  0  0  0  0  0  0
   19.9392   20.5160   23.3846 H   0  0  0  0  0  0  0  0  0  0  0  0
   19.3929   20.7904   21.3154 C   0  0  0  0  0  0  0  0  0  0  0  0
   20.3935   20.5801   20.9127 H   0  0  0  0  0  0  0  0  0  0  0  0
   19.3489   21.8769   21.4752 H   0  0  0  0  0  0  0  0  0  0  0  0
   18.3199   20.3985   20.2738 C   0  0  0  0  0  0  0  0  0  0  0  0
   17.3085   20.5684   20.6653 H   0  0  0  0  0  0  0  0  0  0  0  0
   18.4042   19.3441   19.9836 H   0  0  0  0  0  0  0  0  0  0  0  0
   18.4319   21.0002   19.3626 H   0  0  0  0  0  0  0  0  0  0  0  0
   22.6325   18.6070   25.7866 C   0  0  0  0  0  0  0  0  0  0  0  0
   22.4582   19.6751   25.9339 H   0  0  0  0  0  0  0  0  0  0  0  0
   22.4096   18.0650   26.7082 H   0  0  0  0  0  0  0  0  0  0  0  0
   23.6736   18.4387   25.5023 H   0  0  0  0  0  0  0  0  0  0  0  0
  1  2  1  0  0  0  0
  1  3  1  0  0  0  0
  1  4  1  0  0  0  0
  4  5  1  0  0  0  0
  4  6  1  0  0  0  0
  4  7  1  0  0  0  0
  7  8  1  0  0  0  0
  7  9  1  0  0  0  0
  7 10  1  0  0  0  0
 10 11  1  0  0  0  0
 10 12  1  0  0  0  0
 10 13  1  0  0  0  0
 13 14  1  0  0  0  0
 13 15  1  0  0  0  0
 13 16  1  0  0  0  0
 16 17  1  0  0  0  0
 16 18  1  0  0  0  0
 16 19  1  0  0  0  0
 19 20  1  0  0  0  0
 19 21  1  0  0  0  0
 19 22  1  0  0  0  0
  1 23  1  0  0  0  0
 23 24  1  0  0  0  0
 23 25  1  0  0  0  0
 23 26  1  0  0  0  0
M  END
> <VConfSearch Rank>
534

> <Conf_Id>
134

> <Delta U+W>
1.464

> <U+W>
23.306

> <U>
72.579

> <W>
-49.273

> <W(PB)>
-51.540

> <W(SA)>
2.267

> <Valence>
2.677

> <Coulomb>
69.622

> <VdW>
0.280

> <VdW6>
-7.328

> <VdW12>
7.608

> <Bond>
0.212

> <Angle>
0.911

> <Pdih>
1.555

> <Idih>
0.000

> <Tether>
0.000

$$$$
VeraChem MOL file


 26 25  0  0  0  0  0  0  0  0999 V2000     
   21.5841   17.7428   21.3549 N   0  3  0  0  0  0  0  0  0  0  0  0
   21.9545   17.1745   22.1324 H   0  0  0  0  0  0  0  0  0  0  0  0
   22.3187   18.4374   21.1481 H   0  0  0  0  0  0  0  0  0  0  0  0
   20.3083   18.4420   21.7793 C   0  0  0  0  0  0  0  0  0  0  0  0
   19.5613   17.6742   21.9960 H   0  0  0  0  0  0  0  0  0  0  0  0
   19.9549   19.0372   20.9336 H   0  0  0  0  0  0  0  0  0  0  0  0
   20.4911   19.3484   23.0101 C   0  0  0  0  0  0  0  0  0  0  0  0
   20.8632   18.7439   23.8469 H   0  0  0  0  0  0  0  0  0  0  0  0
   21.2535   20.1085   22.7940 H   0  0  0  0  0  0  0  0  0  0  0  0
   19.1640   20.0390   23.4030 C   0  0  0  0  0  0  0  0  0  0  0  0
   18.4116   19.2805   23.6573 H   0  0  0  0  0  0  0  0  0  0  0  0
   18.7682   20.5743   22.5287 H   0  0  0  0  0  0  0  0  0  0  0  0
   19.3117   21.0507   24.5690 C   0  0  0  0  0  0  0  0  0  0  0  0
   19.9811   21.8632   24.2545 H   0  0  0  0  0  0  0  0  0  0  0  0
   18.3358   21.5207   24.7532 H   0  0  0  0  0  0  0  0  0  0  0  0
   19.8397   20.4559   25.8997 C   0  0  0  0  0  0  0  0  0  0  0  0
   19.9012   21.2631   26.6430 H   0  0  0  0  0  0  0  0  0  0  0  0
   20.8668   20.0890   25.7710 H   0  0  0  0  0  0  0  0  0  0  0  0
   18.9490   19.3264   26.4652 C   0  0  0  0  0  0  0  0  0  0  0  0
   17.9115   19.6644   26.5849 H   0  0  0  0  0  0  0  0  0  0  0  0
   19.3133   19.0057   27.4497 H   0  0  0  0  0  0  0  0  0  0  0  0
   18.9508   18.4463   25.8101 H   0  0  0  0  0  0  0  0  0  0  0  0
   21.3160   16.8704   20.1363 C   0  0  0  0  0  0  0  0  0  0  0  0
   20.9570   17.4977   19.3175 H   0  0  0  0  0  0  0  0  0  0  0  0
   22.2425   16.3730   19.8410 H   0  0  0  0  0  0  0  0  0  0  0  0
   20.5605   16.1232   20.3889 H   0  0  0  0  0  0  0  0  0  0  0  0
  1  2  1  0  0  0  0
  1  3  1  0  0  0  0
  1  4  1  0  0  0  0
  4  5  1  0  0  0  0
  4  6  1  0  0  0  0
  4  7  1  0  0  0  0
  7  8  1  0  0  0  0
  7  9  1  0  0  0  0
  7 10  1  0  0  0  0
 10 11  1  0  0  0  0
 10 12  1  0  0  0  0
 10 13  1  0  0  0  0
 13 14  1  0  0  0  0
 13 15  1  0  0  0  0
 13 16  1  0  0  0  0
 16 17  1  0  0  0  0
 16 18  1  0  0  0  0
 16 19  1  0  0  0  0
 19 20  1  0  0  0  0
 19 21  1  0  0  0  0
 19 22  1  0  0  0  0
  1 23  1  0  0  0  0
 23 24  1  0  0  0  0
 23 25  1  0  0  0  0
 23 26  1  0  0  0  0
M  END
> <VConfSearch Rank>
535

> <Conf_Id>
30

> <Delta U+W>
0.910

> <U+W>
22.752

> <U>
71.870

> <W>
-49.118

> <W(PB)>
-51.409

> <W(SA)>
2.290

> <Valence>
2.682

> <Coulomb>
68.933

> <VdW>
0.255

> <VdW6>
-6.833

> <VdW12>
7.088

> <Bond>
0.205

> <Angle>
1.003

> <Pdih>
1.473

> <Idih>
0.000

> <Tether>
0.000

$$$$
VeraChem MOL file


 26 25  0  0  0  0  0  0  0  0999 V2000     
   19.3726   18.3379   25.9523 N   0  3  0  0  0  0  0  0  0  0  0  0
   19.0809   17.3566   25.8228 H   0  0  0  0  0  0  0  0  0  0  0  0
   18.5160   18.8985   25.8233 H   0  0  0  0  0  0  0  0  0  0  0  0
   20.4076   18.7172   24.9122 C   0  0  0  0  0  0  0  0  0  0  0  0
   21.2923   18.0972   25.0781 H   0  0  0  0  0  0  0  0  0  0  0  0
   20.6830   19.7617   25.0785 H   0  0  0  0  0  0  0  0  0  0  0  0
   19.9122   18.5364   23.4660 C   0  0  0  0  0  0  0  0  0  0  0  0
   19.6216   17.4894   23.3075 H   0  0  0  0  0  0  0  0  0  0  0  0
   19.0140   19.1488   23.3167 H   0  0  0  0  0  0  0  0  0  0  0  0
   21.0022   18.9347   22.4434 C   0  0  0  0  0  0  0  0  0  0  0  0
   21.9181   18.3670   22.6592 H   0  0  0  0  0  0  0  0  0  0  0  0
   21.2661   19.9926   22.5747 H   0  0  0  0  0  0  0  0  0  0  0  0
   20.5986   18.6683   20.9699 C   0  0  0  0  0  0  0  0  0  0  0  0
   21.4413   18.9403   20.3193 H   0  0  0  0  0  0  0  0  0  0  0  0
   20.4484   17.5889   20.8301 H   0  0  0  0  0  0  0  0  0  0  0  0
   19.3301   19.4158   20.4846 C   0  0  0  0  0  0  0  0  0  0  0  0
   18.4485   19.0683   21.0396 H   0  0  0  0  0  0  0  0  0  0  0  0
   19.1473   19.1481   19.4345 H   0  0  0  0  0  0  0  0  0  0  0  0
   19.4427   20.9535   20.5932 C   0  0  0  0  0  0  0  0  0  0  0  0
   19.5086   21.2793   21.6387 H   0  0  0  0  0  0  0  0  0  0  0  0
   18.5608   21.4357   20.1521 H   0  0  0  0  0  0  0  0  0  0  0  0
   20.3288   21.3229   20.0609 H   0  0  0  0  0  0  0  0  0  0  0  0
   19.9415   18.5459   27.3490 C   0  0  0  0  0  0  0  0  0  0  0  0
   19.1865   18.2691   28.0882 H   0  0  0  0  0  0  0  0  0  0  0  0
   20.8269   17.9184   27.4733 H   0  0  0  0  0  0  0  0  0  0  0  0
   20.2121   19.5967   27.4739 H   0  0  0  0  0  0  0  0  0  0  0  0
  1  2  1  0  0  0  0
  1  3  1  0  0  0  0
  1  4  1  0  0  0  0
  4  5  1  0  0  0  0
  4  6  1  0  0  0  0
  4  7  1  0  0  0  0
  7  8  1  0  0  0  0
  7  9  1  0  0  0  0
  7 10  1  0  0  0  0
 10 11  1  0  0  0  0
 10 12  1  0  0  0  0
 10 13  1  0  0  0  0
 13 14  1  0  0  0  0
 13 15  1  0  0  0  0
 13 16  1  0  0  0  0
 16 17  1  0  0  0  0
 16 18  1  0  0  0  0
 16 19  1  0  0  0  0
 19 20  1  0  0  0  0
 19 21  1  0  0  0  0
 19 22  1  0  0  0  0
  1 23  1  0  0  0  0
 23 24  1  0  0  0  0
 23 25  1  0  0  0  0
 23 26  1  0  0  0  0
M  END
> <VConfSearch Rank>
536

> <Conf_Id>
29

> <Delta U+W>
0.886

> <U+W>
22.729

> <U>
71.870

> <W>
-49.141

> <W(PB)>
-51.404

> <W(SA)>
2.262

> <Valence>
2.682

> <Coulomb>
68.933

> <VdW>
0.255

> <VdW6>
-6.833

> <VdW12>
7.088

> <Bond>
0.205

> <Angle>
1.003

> <Pdih>
1.473

> <Idih>
0.000

> <Tether>
0.000

$$$$
VeraChem MOL file


 26 25  0  0  0  0  0  0  0  0999 V2000     
   20.6380   19.7748   20.8410 N   0  3  0  0  0  0  0  0  0  0  0  0
   21.4089   19.2443   20.4062 H   0  0  0  0  0  0  0  0  0  0  0  0
   21.0823   20.5982   21.2760 H   0  0  0  0  0  0  0  0  0  0  0  0
   19.9530   18.9308   21.8968 C   0  0  0  0  0  0  0  0  0  0  0  0
   19.5080   18.0658   21.3987 H   0  0  0  0  0  0  0  0  0  0  0  0
   19.1492   19.5294   22.3321 H   0  0  0  0  0  0  0  0  0  0  0  0
   20.9064   18.4545   23.0092 C   0  0  0  0  0  0  0  0  0  0  0  0
   21.7293   17.8846   22.5579 H   0  0  0  0  0  0  0  0  0  0  0  0
   21.3653   19.3222   23.5000 H   0  0  0  0  0  0  0  0  0  0  0  0
   20.1992   17.5640   24.0608 C   0  0  0  0  0  0  0  0  0  0  0  0
   20.9333   17.2435   24.8121 H   0  0  0  0  0  0  0  0  0  0  0  0
   19.8554   16.6421   23.5716 H   0  0  0  0  0  0  0  0  0  0  0  0
   18.9881   18.2292   24.7693 C   0  0  0  0  0  0  0  0  0  0  0  0
   18.1846   18.3959   24.0392 H   0  0  0  0  0  0  0  0  0  0  0  0
   18.5778   17.5203   25.5016 H   0  0  0  0  0  0  0  0  0  0  0  0
   19.2978   19.5671   25.4882 C   0  0  0  0  0  0  0  0  0  0  0  0
   18.3695   19.9457   25.9382 H   0  0  0  0  0  0  0  0  0  0  0  0
   19.6095   20.3270   24.7591 H   0  0  0  0  0  0  0  0  0  0  0  0
   20.3688   19.4349   26.5946 C   0  0  0  0  0  0  0  0  0  0  0  0
   20.4899   20.3863   27.1285 H   0  0  0  0  0  0  0  0  0  0  0  0
   21.3467   19.1631   26.1781 H   0  0  0  0  0  0  0  0  0  0  0  0
   20.0842   18.6712   27.3300 H   0  0  0  0  0  0  0  0  0  0  0  0
   19.6271   20.2074   19.7881 C   0  0  0  0  0  0  0  0  0  0  0  0
   20.1331   20.8141   19.0337 H   0  0  0  0  0  0  0  0  0  0  0  0
   19.1951   19.3206   19.3193 H   0  0  0  0  0  0  0  0  0  0  0  0
   18.8396   20.7943   20.2660 H   0  0  0  0  0  0  0  0  0  0  0  0
  1  2  1  0  0  0  0
  1  3  1  0  0  0  0
  1  4  1  0  0  0  0
  4  5  1  0  0  0  0
  4  6  1  0  0  0  0
  4  7  1  0  0  0  0
  7  8  1  0  0  0  0
  7  9  1  0  0  0  0
  7 10  1  0  0  0  0
 10 11  1  0  0  0  0
 10 12  1  0  0  0  0
 10 13  1  0  0  0  0
 13 14  1  0  0  0  0
 13 15  1  0  0  0  0
 13 16  1  0  0  0  0
 16 17  1  0  0  0  0
 16 18  1  0  0  0  0
 16 19  1  0  0  0  0
 19 20  1  0  0  0  0
 19 21  1  0  0  0  0
 19 22  1  0  0  0  0
  1 23  1  0  0  0  0
 23 24  1  0  0  0  0
 23 25  1  0  0  0  0
 23 26  1  0  0  0  0
M  END
> <VConfSearch Rank>
537

> <Conf_Id>
82

> <Delta U+W>
1.026

> <U+W>
22.868

> <U>
72.455

> <W>
-49.586

> <W(PB)>
-51.821

> <W(SA)>
2.234

> <Valence>
2.908

> <Coulomb>
69.435

> <VdW>
0.112

> <VdW6>
-7.765

> <VdW12>
7.877

> <Bond>
0.233

> <Angle>
1.170

> <Pdih>
1.506

> <Idih>
0.000

> <Tether>
0.000

$$$$
VeraChem MOL file


 26 25  0  0  0  0  0  0  0  0999 V2000     
   22.6002   19.9374   23.3472 N   0  3  0  0  0  0  0  0  0  0  0  0
   22.2793   20.5974   24.0724 H   0  0  0  0  0  0  0  0  0  0  0  0
   22.8938   20.5250   22.5514 H   0  0  0  0  0  0  0  0  0  0  0  0
   21.4650   19.0239   22.9315 C   0  0  0  0  0  0  0  0  0  0  0  0
   21.1841   18.4246   23.8009 H   0  0  0  0  0  0  0  0  0  0  0  0
   21.8413   18.3517   22.1563 H   0  0  0  0  0  0  0  0  0  0  0  0
   20.2328   19.7839   22.4049 C   0  0  0  0  0  0  0  0  0  0  0  0
   19.8632   20.4702   23.1774 H   0  0  0  0  0  0  0  0  0  0  0  0
   20.5330   20.4100   21.5543 H   0  0  0  0  0  0  0  0  0  0  0  0
   19.0953   18.8356   21.9511 C   0  0  0  0  0  0  0  0  0  0  0  0
   19.4473   18.2437   21.0948 H   0  0  0  0  0  0  0  0  0  0  0  0
   18.2578   19.4356   21.5710 H   0  0  0  0  0  0  0  0  0  0  0  0
   18.5817   17.8629   23.0471 C   0  0  0  0  0  0  0  0  0  0  0  0
   17.7699   17.2554   22.6240 H   0  0  0  0  0  0  0  0  0  0  0  0
   19.3774   17.1514   23.3057 H   0  0  0  0  0  0  0  0  0  0  0  0
   18.0740   18.5409   24.3453 C   0  0  0  0  0  0  0  0  0  0  0  0
   18.8971   19.0690   24.8451 H   0  0  0  0  0  0  0  0  0  0  0  0
   17.7505   17.7581   25.0455 H   0  0  0  0  0  0  0  0  0  0  0  0
   16.8968   19.5140   24.1087 C   0  0  0  0  0  0  0  0  0  0  0  0
   17.2018   20.3748   23.5009 H   0  0  0  0  0  0  0  0  0  0  0  0
   16.5196   19.9010   25.0642 H   0  0  0  0  0  0  0  0  0  0  0  0
   16.0652   19.0105   23.5989 H   0  0  0  0  0  0  0  0  0  0  0  0
   23.7702   19.1089   23.8595 C   0  0  0  0  0  0  0  0  0  0  0  0
   24.1134   18.4424   23.0651 H   0  0  0  0  0  0  0  0  0  0  0  0
   24.5810   19.7785   24.1551 H   0  0  0  0  0  0  0  0  0  0  0  0
   23.4445   18.5213   24.7207 H   0  0  0  0  0  0  0  0  0  0  0  0
  1  2  1  0  0  0  0
  1  3  1  0  0  0  0
  1  4  1  0  0  0  0
  4  5  1  0  0  0  0
  4  6  1  0  0  0  0
  4  7  1  0  0  0  0
  7  8  1  0  0  0  0
  7  9  1  0  0  0  0
  7 10  1  0  0  0  0
 10 11  1  0  0  0  0
 10 12  1  0  0  0  0
 10 13  1  0  0  0  0
 13 14  1  0  0  0  0
 13 15  1  0  0  0  0
 13 16  1  0  0  0  0
 16 17  1  0  0  0  0
 16 18  1  0  0  0  0
 16 19  1  0  0  0  0
 19 20  1  0  0  0  0
 19 21  1  0  0  0  0
 19 22  1  0  0  0  0
  1 23  1  0  0  0  0
 23 24  1  0  0  0  0
 23 25  1  0  0  0  0
 23 26  1  0  0  0  0
M  END
> <VConfSearch Rank>
538

> <Conf_Id>
71

> <Delta U+W>
1.096

> <U+W>
22.938

> <U>
72.455

> <W>
-49.517

> <W(PB)>
-51.795

> <W(SA)>
2.278

> <Valence>
2.908

> <Coulomb>
69.435

> <VdW>
0.112

> <VdW6>
-7.766

> <VdW12>
7.877

> <Bond>
0.233

> <Angle>
1.170

> <Pdih>
1.506

> <Idih>
0.000

> <Tether>
0.000

$$$$
VeraChem MOL file


 26 25  0  0  0  0  0  0  0  0999 V2000     
   18.1519   20.6063   23.8418 N   0  3  0  0  0  0  0  0  0  0  0  0
   18.0859   19.8498   23.1446 H   0  0  0  0  0  0  0  0  0  0  0  0
   17.6781   21.4149   23.4090 H   0  0  0  0  0  0  0  0  0  0  0  0
   19.6107   20.9480   24.1007 C   0  0  0  0  0  0  0  0  0  0  0  0
   19.6376   21.7374   24.8559 H   0  0  0  0  0  0  0  0  0  0  0  0
   20.0192   21.3585   23.1742 H   0  0  0  0  0  0  0  0  0  0  0  0
   20.4908   19.7632   24.5599 C   0  0  0  0  0  0  0  0  0  0  0  0
   21.5168   20.1254   24.7071 H   0  0  0  0  0  0  0  0  0  0  0  0
   20.1496   19.4172   25.5441 H   0  0  0  0  0  0  0  0  0  0  0  0
   20.5084   18.5663   23.5757 C   0  0  0  0  0  0  0  0  0  0  0  0
   19.4984   18.1456   23.4823 H   0  0  0  0  0  0  0  0  0  0  0  0
   21.1294   17.7746   24.0144 H   0  0  0  0  0  0  0  0  0  0  0  0
   21.0557   18.9369   22.1736 C   0  0  0  0  0  0  0  0  0  0  0  0
   20.4541   19.7495   21.7457 H   0  0  0  0  0  0  0  0  0  0  0  0
   22.0787   19.3268   22.2670 H   0  0  0  0  0  0  0  0  0  0  0  0
   21.0439   17.7537   21.1752 C   0  0  0  0  0  0  0  0  0  0  0  0
   21.3365   18.1272   20.1839 H   0  0  0  0  0  0  0  0  0  0  0  0
   20.0206   17.3677   21.0676 H   0  0  0  0  0  0  0  0  0  0  0  0
   21.9953   16.6018   21.5720 C   0  0  0  0  0  0  0  0  0  0  0  0
   21.6704   16.1095   22.4969 H   0  0  0  0  0  0  0  0  0  0  0  0
   23.0198   16.9679   21.7181 H   0  0  0  0  0  0  0  0  0  0  0  0
   22.0217   15.8374   20.7847 H   0  0  0  0  0  0  0  0  0  0  0  0
   17.4398   20.2165   25.1319 C   0  0  0  0  0  0  0  0  0  0  0  0
   16.3904   20.0081   24.9121 H   0  0  0  0  0  0  0  0  0  0  0  0
   17.9118   19.3248   25.5493 H   0  0  0  0  0  0  0  0  0  0  0  0
   17.5107   21.0416   25.8440 H   0  0  0  0  0  0  0  0  0  0  0  0
  1  2  1  0  0  0  0
  1  3  1  0  0  0  0
  1  4  1  0  0  0  0
  4  5  1  0  0  0  0
  4  6  1  0  0  0  0
  4  7  1  0  0  0  0
  7  8  1  0  0  0  0
  7  9  1  0  0  0  0
  7 10  1  0  0  0  0
 10 11  1  0  0  0  0
 10 12  1  0  0  0  0
 10 13  1  0  0  0  0
 13 14  1  0  0  0  0
 13 15  1  0  0  0  0
 13 16  1  0  0  0  0
 16 17  1  0  0  0  0
 16 18  1  0  0  0  0
 16 19  1  0  0  0  0
 19 20  1  0  0  0  0
 19 21  1  0  0  0  0
 19 22  1  0  0  0  0
  1 23  1  0  0  0  0
 23 24  1  0  0  0  0
 23 25  1  0  0  0  0
 23 26  1  0  0  0  0
M  END
> <VConfSearch Rank>
539

> <Conf_Id>
84

> <Delta U+W>
1.456

> <U+W>
23.298

> <U>
73.042

> <W>
-49.744

> <W(PB)>
-51.966

> <W(SA)>
2.222

> <Valence>
2.938

> <Coulomb>
69.625

> <VdW>
0.478

> <VdW6>
-8.182

> <VdW12>
8.660

> <Bond>
0.253

> <Angle>
1.038

> <Pdih>
1.647

> <Idih>
0.000

> <Tether>
0.000

$$$$
VeraChem MOL file


 26 25  0  0  0  0  0  0  0  0999 V2000     
   18.0738   19.5323   24.6371 N   0  3  0  0  0  0  0  0  0  0  0  0
   18.9380   19.0696   24.9567 H   0  0  0  0  0  0  0  0  0  0  0  0
   17.3193   18.8446   24.7872 H   0  0  0  0  0  0  0  0  0  0  0  0
   18.1833   19.8729   23.1638 C   0  0  0  0  0  0  0  0  0  0  0  0
   18.9868   20.6037   23.0460 H   0  0  0  0  0  0  0  0  0  0  0  0
   17.2460   20.3480   22.8632 H   0  0  0  0  0  0  0  0  0  0  0  0
   18.4518   18.6523   22.2594 C   0  0  0  0  0  0  0  0  0  0  0  0
   17.6129   17.9491   22.3458 H   0  0  0  0  0  0  0  0  0  0  0  0
   18.4638   18.9861   21.2133 H   0  0  0  0  0  0  0  0  0  0  0  0
   19.7762   17.9118   22.5741 C   0  0  0  0  0  0  0  0  0  0  0  0
   19.8693   17.0574   21.8894 H   0  0  0  0  0  0  0  0  0  0  0  0
   19.7362   17.4870   23.5860 H   0  0  0  0  0  0  0  0  0  0  0  0
   21.0269   18.8128   22.4335 C   0  0  0  0  0  0  0  0  0  0  0  0
   21.0498   19.2543   21.4276 H   0  0  0  0  0  0  0  0  0  0  0  0
   20.9722   19.6470   23.1456 H   0  0  0  0  0  0  0  0  0  0  0  0
   22.3328   18.0243   22.6784 C   0  0  0  0  0  0  0  0  0  0  0  0
   22.4040   17.1922   21.9639 H   0  0  0  0  0  0  0  0  0  0  0  0
   22.3148   17.5785   23.6828 H   0  0  0  0  0  0  0  0  0  0  0  0
   23.5791   18.9246   22.5406 C   0  0  0  0  0  0  0  0  0  0  0  0
   23.6433   19.3588   21.5343 H   0  0  0  0  0  0  0  0  0  0  0  0
   24.4959   18.3473   22.7171 H   0  0  0  0  0  0  0  0  0  0  0  0
   23.5545   19.7474   23.2669 H   0  0  0  0  0  0  0  0  0  0  0  0
   17.8145   20.7967   25.4441 C   0  0  0  0  0  0  0  0  0  0  0  0
   16.8801   21.2515   25.1083 H   0  0  0  0  0  0  0  0  0  0  0  0
   17.7390   20.5371   26.5024 H   0  0  0  0  0  0  0  0  0  0  0  0
   18.6410   21.4947   25.2935 H   0  0  0  0  0  0  0  0  0  0  0  0
  1  2  1  0  0  0  0
  1  3  1  0  0  0  0
  1  4  1  0  0  0  0
  4  5  1  0  0  0  0
  4  6  1  0  0  0  0
  4  7  1  0  0  0  0
  7  8  1  0  0  0  0
  7  9  1  0  0  0  0
  7 10  1  0  0  0  0
 10 11  1  0  0  0  0
 10 12  1  0  0  0  0
 10 13  1  0  0  0  0
 13 14  1  0  0  0  0
 13 15  1  0  0  0  0
 13 16  1  0  0  0  0
 16 17  1  0  0  0  0
 16 18  1  0  0  0  0
 16 19  1  0  0  0  0
 19 20  1  0  0  0  0
 19 21  1  0  0  0  0
 19 22  1  0  0  0  0
  1 23  1  0  0  0  0
 23 24  1  0  0  0  0
 23 25  1  0  0  0  0
 23 26  1  0  0  0  0
M  END
> <VConfSearch Rank>
540

> <Conf_Id>
73

> <Delta U+W>
0.884

> <U+W>
22.726

> <U>
71.905

> <W>
-49.179

> <W(PB)>
-51.494

> <W(SA)>
2.315

> <Valence>
2.125

> <Coulomb>
69.686

> <VdW>
0.093

> <VdW6>
-6.766

> <VdW12>
6.859

> <Bond>
0.169

> <Angle>
0.621

> <Pdih>
1.336

> <Idih>
0.000

> <Tether>
0.000

$$$$
VeraChem MOL file


 26 25  0  0  0  0  0  0  0  0999 V2000     
   17.7322   16.8279   23.1576 N   0  3  0  0  0  0  0  0  0  0  0  0
   18.0698   16.3795   22.2916 H   0  0  0  0  0  0  0  0  0  0  0  0
   16.9808   17.4693   22.8595 H   0  0  0  0  0  0  0  0  0  0  0  0
   18.8540   17.6063   23.8151 C   0  0  0  0  0  0  0  0  0  0  0  0
   19.6299   16.8941   24.1071 H   0  0  0  0  0  0  0  0  0  0  0  0
   18.4544   18.0704   24.7203 H   0  0  0  0  0  0  0  0  0  0  0  0
   19.4606   18.6879   22.9029 C   0  0  0  0  0  0  0  0  0  0  0  0
   19.8460   18.2193   21.9874 H   0  0  0  0  0  0  0  0  0  0  0  0
   18.6743   19.3917   22.5986 H   0  0  0  0  0  0  0  0  0  0  0  0
   20.5981   19.4541   23.6138 C   0  0  0  0  0  0  0  0  0  0  0  0
   21.3801   18.7459   23.9214 H   0  0  0  0  0  0  0  0  0  0  0  0
   20.2098   19.9168   24.5320 H   0  0  0  0  0  0  0  0  0  0  0  0
   21.2149   20.5435   22.7070 C   0  0  0  0  0  0  0  0  0  0  0  0
   21.6033   20.0811   21.7889 H   0  0  0  0  0  0  0  0  0  0  0  0
   20.4331   21.2518   22.3994 H   0  0  0  0  0  0  0  0  0  0  0  0
   22.3525   21.3096   23.4184 C   0  0  0  0  0  0  0  0  0  0  0  0
   23.1385   20.6057   23.7260 H   0  0  0  0  0  0  0  0  0  0  0  0
   21.9684   21.7763   24.3364 H   0  0  0  0  0  0  0  0  0  0  0  0
   22.9660   22.3965   22.5099 C   0  0  0  0  0  0  0  0  0  0  0  0
   23.7713   22.9291   23.0322 H   0  0  0  0  0  0  0  0  0  0  0  0
   22.2106   23.1358   22.2132 H   0  0  0  0  0  0  0  0  0  0  0  0
   23.3898   21.9560   21.5980 H   0  0  0  0  0  0  0  0  0  0  0  0
   17.1907   15.7833   24.1238 C   0  0  0  0  0  0  0  0  0  0  0  0
   16.8094   16.2834   25.0168 H   0  0  0  0  0  0  0  0  0  0  0  0
   16.3838   15.2301   23.6379 H   0  0  0  0  0  0  0  0  0  0  0  0
   17.9948   15.0972   24.3986 H   0  0  0  0  0  0  0  0  0  0  0  0
  1  2  1  0  0  0  0
  1  3  1  0  0  0  0
  1  4  1  0  0  0  0
  4  5  1  0  0  0  0
  4  6  1  0  0  0  0
  4  7  1  0  0  0  0
  7  8  1  0  0  0  0
  7  9  1  0  0  0  0
  7 10  1  0  0  0  0
 10 11  1  0  0  0  0
 10 12  1  0  0  0  0
 10 13  1  0  0  0  0
 13 14  1  0  0  0  0
 13 15  1  0  0  0  0
 13 16  1  0  0  0  0
 16 17  1  0  0  0  0
 16 18  1  0  0  0  0
 16 19  1  0  0  0  0
 19 20  1  0  0  0  0
 19 21  1  0  0  0  0
 19 22  1  0  0  0  0
  1 23  1  0  0  0  0
 23 24  1  0  0  0  0
 23 25  1  0  0  0  0
 23 26  1  0  0  0  0
M  END
> <VConfSearch Rank>
541

> <Conf_Id>
11

> <Delta U+W>
0.000

> <U+W>
21.842

> <U>
70.357

> <W>
-48.515

> <W(PB)>
-50.856

> <W(SA)>
2.341

> <Valence>
1.714

> <Coulomb>
68.480

> <VdW>
0.163

> <VdW6>
-5.268

> <VdW12>
5.431

> <Bond>
0.126

> <Angle>
0.350

> <Pdih>
1.238

> <Idih>
0.000

> <Tether>
0.000

$$$$
VeraChem MOL file


 26 25  0  0  0  0  0  0  0  0999 V2000     
   17.1047   17.3637   23.7216 N   0  3  0  0  0  0  0  0  0  0  0  0
   16.1280   17.5668   23.9880 H   0  0  0  0  0  0  0  0  0  0  0  0
   17.4739   16.7812   24.4890 H   0  0  0  0  0  0  0  0  0  0  0  0
   17.8861   18.6634   23.6257 C   0  0  0  0  0  0  0  0  0  0  0  0
   17.6855   19.2308   24.5381 H   0  0  0  0  0  0  0  0  0  0  0  0
   17.4917   19.2317   22.7795 H   0  0  0  0  0  0  0  0  0  0  0  0
   19.4103   18.4843   23.4724 C   0  0  0  0  0  0  0  0  0  0  0  0
   19.7898   17.8706   24.3000 H   0  0  0  0  0  0  0  0  0  0  0  0
   19.6289   17.9426   22.5430 H   0  0  0  0  0  0  0  0  0  0  0  0
   20.1391   19.8463   23.4582 C   0  0  0  0  0  0  0  0  0  0  0  0
   19.9187   20.3894   24.3878 H   0  0  0  0  0  0  0  0  0  0  0  0
   19.7520   20.4598   22.6327 H   0  0  0  0  0  0  0  0  0  0  0  0
   21.6685   19.6810   23.3064 C   0  0  0  0  0  0  0  0  0  0  0  0
   22.0557   19.0673   24.1316 H   0  0  0  0  0  0  0  0  0  0  0  0
   21.8891   19.1382   22.3767 H   0  0  0  0  0  0  0  0  0  0  0  0
   22.3971   21.0433   23.2922 C   0  0  0  0  0  0  0  0  0  0  0  0
   22.1816   21.5893   24.2215 H   0  0  0  0  0  0  0  0  0  0  0  0
   22.0150   21.6602   22.4667 H   0  0  0  0  0  0  0  0  0  0  0  0
   23.9240   20.8743   23.1404 C   0  0  0  0  0  0  0  0  0  0  0  0
   24.4234   21.8518   23.1325 H   0  0  0  0  0  0  0  0  0  0  0  0
   24.1732   20.3613   22.2024 H   0  0  0  0  0  0  0  0  0  0  0  0
   24.3412   20.2899   23.9709 H   0  0  0  0  0  0  0  0  0  0  0  0
   17.1332   16.6027   22.4009 C   0  0  0  0  0  0  0  0  0  0  0  0
   18.1638   16.3351   22.1595 H   0  0  0  0  0  0  0  0  0  0  0  0
   16.5319   15.6960   22.4981 H   0  0  0  0  0  0  0  0  0  0  0  0
   16.7200   17.2362   21.6129 H   0  0  0  0  0  0  0  0  0  0  0  0
  1  2  1  0  0  0  0
  1  3  1  0  0  0  0
  1  4  1  0  0  0  0
  4  5  1  0  0  0  0
  4  6  1  0  0  0  0
  4  7  1  0  0  0  0
  7  8  1  0  0  0  0
  7  9  1  0  0  0  0
  7 10  1  0  0  0  0
 10 11  1  0  0  0  0
 10 12  1  0  0  0  0
 10 13  1  0  0  0  0
 13 14  1  0  0  0  0
 13 15  1  0  0  0  0
 13 16  1  0  0  0  0
 16 17  1  0  0  0  0
 16 18  1  0  0  0  0
 16 19  1  0  0  0  0
 19 20  1  0  0  0  0
 19 21  1  0  0  0  0
 19 22  1  0  0  0  0
  1 23  1  0  0  0  0
 23 24  1  0  0  0  0
 23 25  1  0  0  0  0
 23 26  1  0  0  0  0
M  END
> <VConfSearch Rank>
542

> <Conf_Id>
102

> <Delta U+W>
0.121

> <U+W>
21.963

> <U>
70.745

> <W>
-48.782

> <W(PB)>
-51.111

> <W(SA)>
2.329

> <Valence>
1.993

> <Coulomb>
68.323

> <VdW>
0.429

> <VdW6>
-5.973

> <VdW12>
6.402

> <Bond>
0.161

> <Angle>
0.472

> <Pdih>
1.360

> <Idih>
0.000

> <Tether>
0.000

$$$$
VeraChem MOL file


 26 25  0  0  0  0  0  0  0  0999 V2000     
   20.0093   21.2356   25.8538 N   0  3  0  0  0  0  0  0  0  0  0  0
   20.2913   22.0476   25.2831 H   0  0  0  0  0  0  0  0  0  0  0  0
   20.4777   21.3740   26.7634 H   0  0  0  0  0  0  0  0  0  0  0  0
   20.5058   19.9481   25.2172 C   0  0  0  0  0  0  0  0  0  0  0  0
   20.1541   19.1130   25.8283 H   0  0  0  0  0  0  0  0  0  0  0  0
   21.5978   19.9643   25.2616 H   0  0  0  0  0  0  0  0  0  0  0  0
   20.0671   19.7475   23.7523 C   0  0  0  0  0  0  0  0  0  0  0  0
   18.9720   19.6978   23.6962 H   0  0  0  0  0  0  0  0  0  0  0  0
   20.3814   20.6144   23.1562 H   0  0  0  0  0  0  0  0  0  0  0  0
   20.6723   18.4581   23.1544 C   0  0  0  0  0  0  0  0  0  0  0  0
   20.3608   17.5938   23.7576 H   0  0  0  0  0  0  0  0  0  0  0  0
   21.7687   18.5071   23.2123 H   0  0  0  0  0  0  0  0  0  0  0  0
   20.2413   18.2456   21.6852 C   0  0  0  0  0  0  0  0  0  0  0  0
   19.1450   18.1962   21.6272 H   0  0  0  0  0  0  0  0  0  0  0  0
   20.5524   19.1098   21.0821 H   0  0  0  0  0  0  0  0  0  0  0  0
   20.8469   16.9560   21.0875 C   0  0  0  0  0  0  0  0  0  0  0  0
   20.5366   16.0880   21.6861 H   0  0  0  0  0  0  0  0  0  0  0  0
   21.9437   17.0016   21.1408 H   0  0  0  0  0  0  0  0  0  0  0  0
   20.4140   16.7469   19.6206 C   0  0  0  0  0  0  0  0  0  0  0  0
   19.3225   16.6629   19.5390 H   0  0  0  0  0  0  0  0  0  0  0  0
   20.8538   15.8270   19.2139 H   0  0  0  0  0  0  0  0  0  0  0  0
   20.7405   17.5837   18.9894 H   0  0  0  0  0  0  0  0  0  0  0  0
   18.4975   21.2085   26.0492 C   0  0  0  0  0  0  0  0  0  0  0  0
   18.2314   20.3509   26.6710 H   0  0  0  0  0  0  0  0  0  0  0  0
   18.1845   22.1320   26.5414 H   0  0  0  0  0  0  0  0  0  0  0  0
   18.0083   21.1274   25.0765 H   0  0  0  0  0  0  0  0  0  0  0  0
  1  2  1  0  0  0  0
  1  3  1  0  0  0  0
  1  4  1  0  0  0  0
  4  5  1  0  0  0  0
  4  6  1  0  0  0  0
  4  7  1  0  0  0  0
  7  8  1  0  0  0  0
  7  9  1  0  0  0  0
  7 10  1  0  0  0  0
 10 11  1  0  0  0  0
 10 12  1  0  0  0  0
 10 13  1  0  0  0  0
 13 14  1  0  0  0  0
 13 15  1  0  0  0  0
 13 16  1  0  0  0  0
 16 17  1  0  0  0  0
 16 18  1  0  0  0  0
 16 19  1  0  0  0  0
 19 20  1  0  0  0  0
 19 21  1  0  0  0  0
 19 22  1  0  0  0  0
  1 23  1  0  0  0  0
 23 24  1  0  0  0  0
 23 25  1  0  0  0  0
 23 26  1  0  0  0  0
M  END
> <VConfSearch Rank>
543

> <Conf_Id>
37

> <Delta U+W>
0.125

> <U+W>
21.967

> <U>
70.745

> <W>
-48.778

> <W(PB)>
-51.115

> <W(SA)>
2.337

> <Valence>
1.993

> <Coulomb>
68.323

> <VdW>
0.429

> <VdW6>
-5.973

> <VdW12>
6.403

> <Bond>
0.161

> <Angle>
0.472

> <Pdih>
1.360

> <Idih>
0.000

> <Tether>
0.000

$$$$
VeraChem MOL file


 26 25  0  0  0  0  0  0  0  0999 V2000     
   22.0781   19.4445   21.0658 N   0  3  0  0  0  0  0  0  0  0  0  0
   22.4226   20.4169   21.0391 H   0  0  0  0  0  0  0  0  0  0  0  0
   21.4172   19.3658   20.2772 H   0  0  0  0  0  0  0  0  0  0  0  0
   21.3635   19.1788   22.3755 C   0  0  0  0  0  0  0  0  0  0  0  0
   22.0931   19.2823   23.1825 H   0  0  0  0  0  0  0  0  0  0  0  0
   21.0124   18.1444   22.3584 H   0  0  0  0  0  0  0  0  0  0  0  0
   20.1766   20.1294   22.6249 C   0  0  0  0  0  0  0  0  0  0  0  0
   20.5362   21.1665   22.5923 H   0  0  0  0  0  0  0  0  0  0  0  0
   19.4429   20.0256   21.8145 H   0  0  0  0  0  0  0  0  0  0  0  0
   19.4855   19.8817   23.9868 C   0  0  0  0  0  0  0  0  0  0  0  0
   18.7311   20.6650   24.1364 H   0  0  0  0  0  0  0  0  0  0  0  0
   20.2194   19.9975   24.7964 H   0  0  0  0  0  0  0  0  0  0  0  0
   18.8143   18.4878   24.0838 C   0  0  0  0  0  0  0  0  0  0  0  0
   18.0660   18.3805   23.2865 H   0  0  0  0  0  0  0  0  0  0  0  0
   19.5649   17.7055   23.9101 H   0  0  0  0  0  0  0  0  0  0  0  0
   18.1484   18.2187   25.4554 C   0  0  0  0  0  0  0  0  0  0  0  0
   18.8950   18.3135   26.2563 H   0  0  0  0  0  0  0  0  0  0  0  0
   17.8031   17.1756   25.4801 H   0  0  0  0  0  0  0  0  0  0  0  0
   16.9474   19.1460   25.7511 C   0  0  0  0  0  0  0  0  0  0  0  0
   17.2614   20.1911   25.8626 H   0  0  0  0  0  0  0  0  0  0  0  0
   16.4546   18.8493   26.6860 H   0  0  0  0  0  0  0  0  0  0  0  0
   16.2010   19.0942   24.9479 H   0  0  0  0  0  0  0  0  0  0  0  0
   23.2309   18.4646   20.8967 C   0  0  0  0  0  0  0  0  0  0  0  0
   22.8385   17.4453   20.8946 H   0  0  0  0  0  0  0  0  0  0  0  0
   23.7370   18.6669   19.9500 H   0  0  0  0  0  0  0  0  0  0  0  0
   23.9327   18.5894   21.7242 H   0  0  0  0  0  0  0  0  0  0  0  0
  1  2  1  0  0  0  0
  1  3  1  0  0  0  0
  1  4  1  0  0  0  0
  4  5  1  0  0  0  0
  4  6  1  0  0  0  0
  4  7  1  0  0  0  0
  7  8  1  0  0  0  0
  7  9  1  0  0  0  0
  7 10  1  0  0  0  0
 10 11  1  0  0  0  0
 10 12  1  0  0  0  0
 10 13  1  0  0  0  0
 13 14  1  0  0  0  0
 13 15  1  0  0  0  0
 13 16  1  0  0  0  0
 16 17  1  0  0  0  0
 16 18  1  0  0  0  0
 16 19  1  0  0  0  0
 19 20  1  0  0  0  0
 19 21  1  0  0  0  0
 19 22  1  0  0  0  0
  1 23  1  0  0  0  0
 23 24  1  0  0  0  0
 23 25  1  0  0  0  0
 23 26  1  0  0  0  0
M  END
> <VConfSearch Rank>
544

> <Conf_Id>
137

> <Delta U+W>
1.038

> <U+W>
22.880

> <U>
71.810

> <W>
-48.930

> <W(PB)>
-51.257

> <W(SA)>
2.327

> <Valence>
2.568

> <Coulomb>
68.877

> <VdW>
0.364

> <VdW6>
-6.470

> <VdW12>
6.834

> <Bond>
0.191

> <Angle>
0.752

> <Pdih>
1.626

> <Idih>
0.000

> <Tether>
0.000

$$$$
VeraChem MOL file


 26 25  0  0  0  0  0  0  0  0999 V2000     
   20.9927   16.2350   23.2328 N   0  3  0  0  0  0  0  0  0  0  0  0
   21.9182   16.5955   22.9530 H   0  0  0  0  0  0  0  0  0  0  0  0
   20.5112   16.0008   22.3507 H   0  0  0  0  0  0  0  0  0  0  0  0
   20.2206   17.3018   23.9828 C   0  0  0  0  0  0  0  0  0  0  0  0
   20.7661   17.5261   24.9029 H   0  0  0  0  0  0  0  0  0  0  0  0
   19.2475   16.8837   24.2527 H   0  0  0  0  0  0  0  0  0  0  0  0
   20.0217   18.5944   23.1705 C   0  0  0  0  0  0  0  0  0  0  0  0
   21.0042   18.9939   22.8896 H   0  0  0  0  0  0  0  0  0  0  0  0
   19.4876   18.3614   22.2397 H   0  0  0  0  0  0  0  0  0  0  0  0
   19.2277   19.6491   23.9768 C   0  0  0  0  0  0  0  0  0  0  0  0
   19.7854   19.9189   24.8844 H   0  0  0  0  0  0  0  0  0  0  0  0
   18.2839   19.2008   24.3176 H   0  0  0  0  0  0  0  0  0  0  0  0
   18.8994   20.9294   23.1695 C   0  0  0  0  0  0  0  0  0  0  0  0
   18.3263   20.6618   22.2710 H   0  0  0  0  0  0  0  0  0  0  0  0
   18.2397   21.5642   23.7772 H   0  0  0  0  0  0  0  0  0  0  0  0
   20.1503   21.7461   22.7664 C   0  0  0  0  0  0  0  0  0  0  0  0
   20.7872   21.1576   22.0928 H   0  0  0  0  0  0  0  0  0  0  0  0
   20.7513   21.9697   23.6589 H   0  0  0  0  0  0  0  0  0  0  0  0
   19.7664   23.0664   22.0648 C   0  0  0  0  0  0  0  0  0  0  0  0
   19.1892   22.8744   21.1509 H   0  0  0  0  0  0  0  0  0  0  0  0
   20.6645   23.6313   21.7832 H   0  0  0  0  0  0  0  0  0  0  0  0
   19.1615   23.7030   22.7236 H   0  0  0  0  0  0  0  0  0  0  0  0
   21.1436   14.9957   24.1041 C   0  0  0  0  0  0  0  0  0  0  0  0
   20.1528   14.6135   24.3595 H   0  0  0  0  0  0  0  0  0  0  0  0
   21.7011   14.2355   23.5523 H   0  0  0  0  0  0  0  0  0  0  0  0
   21.6843   15.2609   25.0152 H   0  0  0  0  0  0  0  0  0  0  0  0
  1  2  1  0  0  0  0
  1  3  1  0  0  0  0
  1  4  1  0  0  0  0
  4  5  1  0  0  0  0
  4  6  1  0  0  0  0
  4  7  1  0  0  0  0
  7  8  1  0  0  0  0
  7  9  1  0  0  0  0
  7 10  1  0  0  0  0
 10 11  1  0  0  0  0
 10 12  1  0  0  0  0
 10 13  1  0  0  0  0
 13 14  1  0  0  0  0
 13 15  1  0  0  0  0
 13 16  1  0  0  0  0
 16 17  1  0  0  0  0
 16 18  1  0  0  0  0
 16 19  1  0  0  0  0
 19 20  1  0  0  0  0
 19 21  1  0  0  0  0
 19 22  1  0  0  0  0
  1 23  1  0  0  0  0
 23 24  1  0  0  0  0
 23 25  1  0  0  0  0
 23 26  1  0  0  0  0
M  END
> <VConfSearch Rank>
545

> <Conf_Id>
35

> <Delta U+W>
0.670

> <U+W>
22.512

> <U>
71.348

> <W>
-48.837

> <W(PB)>
-51.150

> <W(SA)>
2.313

> <Valence>
2.262

> <Coulomb>
68.807

> <VdW>
0.280

> <VdW6>
-5.915

> <VdW12>
6.195

> <Bond>
0.164

> <Angle>
0.622

> <Pdih>
1.475

> <Idih>
0.000

> <Tether>
0.000

$$$$
VeraChem MOL file


 26 25  0  0  0  0  0  0  0  0999 V2000     
   19.9447   22.0209   23.5346 N   0  3  0  0  0  0  0  0  0  0  0  0
   19.0271   22.0513   24.0056 H   0  0  0  0  0  0  0  0  0  0  0  0
   19.7358   22.0446   22.5244 H   0  0  0  0  0  0  0  0  0  0  0  0
   20.6720   20.7393   23.8886 C   0  0  0  0  0  0  0  0  0  0  0  0
   20.8664   20.7503   24.9640 H   0  0  0  0  0  0  0  0  0  0  0  0
   21.6315   20.7427   23.3653 H   0  0  0  0  0  0  0  0  0  0  0  0
   19.8844   19.4696   23.5176 C   0  0  0  0  0  0  0  0  0  0  0  0
   18.9147   19.4786   24.0328 H   0  0  0  0  0  0  0  0  0  0  0  0
   19.6792   19.4792   22.4398 H   0  0  0  0  0  0  0  0  0  0  0  0
   20.6659   18.1906   23.9004 C   0  0  0  0  0  0  0  0  0  0  0  0
   20.9320   18.2409   24.9655 H   0  0  0  0  0  0  0  0  0  0  0  0
   21.6150   18.1567   23.3474 H   0  0  0  0  0  0  0  0  0  0  0  0
   19.8744   16.8825   23.6535 C   0  0  0  0  0  0  0  0  0  0  0  0
   20.4550   16.0427   24.0599 H   0  0  0  0  0  0  0  0  0  0  0  0
   18.9335   16.9084   24.2205 H   0  0  0  0  0  0  0  0  0  0  0  0
   19.5761   16.6105   22.1598 C   0  0  0  0  0  0  0  0  0  0  0  0
   20.5117   16.6359   21.5837 H   0  0  0  0  0  0  0  0  0  0  0  0
   18.9295   17.3988   21.7521 H   0  0  0  0  0  0  0  0  0  0  0  0
   18.8874   15.2440   21.9563 C   0  0  0  0  0  0  0  0  0  0  0  0
   19.5227   14.4237   22.3150 H   0  0  0  0  0  0  0  0  0  0  0  0
   18.6806   15.0687   20.8926 H   0  0  0  0  0  0  0  0  0  0  0  0
   17.9330   15.1987   22.4969 H   0  0  0  0  0  0  0  0  0  0  0  0
   20.7895   23.2231   23.9335 C   0  0  0  0  0  0  0  0  0  0  0  0
   21.7409   23.1869   23.3982 H   0  0  0  0  0  0  0  0  0  0  0  0
   20.2545   24.1391   23.6733 H   0  0  0  0  0  0  0  0  0  0  0  0
   20.9694   23.1942   25.0104 H   0  0  0  0  0  0  0  0  0  0  0  0
  1  2  1  0  0  0  0
  1  3  1  0  0  0  0
  1  4  1  0  0  0  0
  4  5  1  0  0  0  0
  4  6  1  0  0  0  0
  4  7  1  0  0  0  0
  7  8  1  0  0  0  0
  7  9  1  0  0  0  0
  7 10  1  0  0  0  0
 10 11  1  0  0  0  0
 10 12  1  0  0  0  0
 10 13  1  0  0  0  0
 13 14  1  0  0  0  0
 13 15  1  0  0  0  0
 13 16  1  0  0  0  0
 16 17  1  0  0  0  0
 16 18  1  0  0  0  0
 16 19  1  0  0  0  0
 19 20  1  0  0  0  0
 19 21  1  0  0  0  0
 19 22  1  0  0  0  0
  1 23  1  0  0  0  0
 23 24  1  0  0  0  0
 23 25  1  0  0  0  0
 23 26  1  0  0  0  0
M  END
> <VConfSearch Rank>
546

> <Conf_Id>
36

> <Delta U+W>
0.662

> <U+W>
22.504

> <U>
71.348

> <W>
-48.844

> <W(PB)>
-51.157

> <W(SA)>
2.313

> <Valence>
2.262

> <Coulomb>
68.807

> <VdW>
0.280

> <VdW6>
-5.916

> <VdW12>
6.195

> <Bond>
0.164

> <Angle>
0.622

> <Pdih>
1.475

> <Idih>
0.000

> <Tether>
0.000

$$$$
VeraChem MOL file


 26 25  0  0  0  0  0  0  0  0999 V2000     
   17.5015   17.7663   22.6512 N   0  3  0  0  0  0  0  0  0  0  0  0
   17.6777   17.6263   21.6441 H   0  0  0  0  0  0  0  0  0  0  0  0
   16.6556   18.3550   22.7025 H   0  0  0  0  0  0  0  0  0  0  0  0
   18.6745   18.4792   23.2933 C   0  0  0  0  0  0  0  0  0  0  0  0
   19.5460   17.8253   23.2122 H   0  0  0  0  0  0  0  0  0  0  0  0
   18.4440   18.6172   24.3526 H   0  0  0  0  0  0  0  0  0  0  0  0
   18.9845   19.8439   22.6485 C   0  0  0  0  0  0  0  0  0  0  0  0
   19.2144   19.7056   21.5836 H   0  0  0  0  0  0  0  0  0  0  0  0
   18.0876   20.4758   22.6970 H   0  0  0  0  0  0  0  0  0  0  0  0
   20.1553   20.5802   23.3416 C   0  0  0  0  0  0  0  0  0  0  0  0
   19.9107   20.7417   24.4008 H   0  0  0  0  0  0  0  0  0  0  0  0
   20.2597   21.5774   22.8919 H   0  0  0  0  0  0  0  0  0  0  0  0
   21.5020   19.8260   23.2257 C   0  0  0  0  0  0  0  0  0  0  0  0
   21.4270   18.8458   23.7152 H   0  0  0  0  0  0  0  0  0  0  0  0
   21.7270   19.6367   22.1669 H   0  0  0  0  0  0  0  0  0  0  0  0
   22.6626   20.6222   23.8630 C   0  0  0  0  0  0  0  0  0  0  0  0
   22.4424   20.8152   24.9224 H   0  0  0  0  0  0  0  0  0  0  0  0
   22.7528   21.6027   23.3746 H   0  0  0  0  0  0  0  0  0  0  0  0
   24.0048   19.8684   23.7482 C   0  0  0  0  0  0  0  0  0  0  0  0
   23.9574   18.8974   24.2581 H   0  0  0  0  0  0  0  0  0  0  0  0
   24.8161   20.4495   24.2056 H   0  0  0  0  0  0  0  0  0  0  0  0
   24.2691   19.6903   22.6977 H   0  0  0  0  0  0  0  0  0  0  0  0
   17.2655   16.4307   23.3428 C   0  0  0  0  0  0  0  0  0  0  0  0
   17.0488   16.6065   24.3988 H   0  0  0  0  0  0  0  0  0  0  0  0
   16.4183   15.9279   22.8711 H   0  0  0  0  0  0  0  0  0  0  0  0
   18.1612   15.8131   23.2465 H   0  0  0  0  0  0  0  0  0  0  0  0
  1  2  1  0  0  0  0
  1  3  1  0  0  0  0
  1  4  1  0  0  0  0
  4  5  1  0  0  0  0
  4  6  1  0  0  0  0
  4  7  1  0  0  0  0
  7  8  1  0  0  0  0
  7  9  1  0  0  0  0
  7 10  1  0  0  0  0
 10 11  1  0  0  0  0
 10 12  1  0  0  0  0
 10 13  1  0  0  0  0
 13 14  1  0  0  0  0
 13 15  1  0  0  0  0
 13 16  1  0  0  0  0
 16 17  1  0  0  0  0
 16 18  1  0  0  0  0
 16 19  1  0  0  0  0
 19 20  1  0  0  0  0
 19 21  1  0  0  0  0
 19 22  1  0  0  0  0
  1 23  1  0  0  0  0
 23 24  1  0  0  0  0
 23 25  1  0  0  0  0
 23 26  1  0  0  0  0
M  END
> <VConfSearch Rank>
547

> <Conf_Id>
46

> <Delta U+W>
0.496

> <U+W>
22.338

> <U>
71.138

> <W>
-48.799

> <W(PB)>
-51.136

> <W(SA)>
2.337

> <Valence>
2.016

> <Coulomb>
68.932

> <VdW>
0.190

> <VdW6>
-5.902

> <VdW12>
6.092

> <Bond>
0.149

> <Angle>
0.477

> <Pdih>
1.390

> <Idih>
0.000

> <Tether>
0.000

$$$$
VeraChem MOL file


 26 25  0  0  0  0  0  0  0  0999 V2000     
   20.3309   16.1740   24.0108 N   0  3  0  0  0  0  0  0  0  0  0  0
   19.6521   15.5038   23.6171 H   0  0  0  0  0  0  0  0  0  0  0  0
   20.0781   16.2674   25.0069 H   0  0  0  0  0  0  0  0  0  0  0  0
   20.2086   17.5133   23.3124 C   0  0  0  0  0  0  0  0  0  0  0  0
   20.4734   17.3692   22.2619 H   0  0  0  0  0  0  0  0  0  0  0  0
   20.9384   18.1907   23.7621 H   0  0  0  0  0  0  0  0  0  0  0  0
   18.7980   18.1254   23.4119 C   0  0  0  0  0  0  0  0  0  0  0  0
   18.0692   17.4166   22.9968 H   0  0  0  0  0  0  0  0  0  0  0  0
   18.5313   18.2686   24.4675 H   0  0  0  0  0  0  0  0  0  0  0  0
   18.6757   19.4705   22.6577 C   0  0  0  0  0  0  0  0  0  0  0  0
   17.6282   19.8005   22.6939 H   0  0  0  0  0  0  0  0  0  0  0  0
   18.9165   19.3186   21.5963 H   0  0  0  0  0  0  0  0  0  0  0  0
   19.5797   20.5814   23.2446 C   0  0  0  0  0  0  0  0  0  0  0  0
   19.3595   20.7076   24.3138 H   0  0  0  0  0  0  0  0  0  0  0  0
   20.6348   20.2858   23.1699 H   0  0  0  0  0  0  0  0  0  0  0  0
   19.3792   21.9292   22.5164 C   0  0  0  0  0  0  0  0  0  0  0  0
   18.3276   22.2397   22.5922 H   0  0  0  0  0  0  0  0  0  0  0  0
   19.5974   21.8087   21.4460 H   0  0  0  0  0  0  0  0  0  0  0  0
   20.2825   23.0359   23.1015 C   0  0  0  0  0  0  0  0  0  0  0  0
   20.0640   23.2033   24.1642 H   0  0  0  0  0  0  0  0  0  0  0  0
   20.1255   23.9847   22.5721 H   0  0  0  0  0  0  0  0  0  0  0  0
   21.3436   22.7701   23.0084 H   0  0  0  0  0  0  0  0  0  0  0  0
   21.7504   15.6429   23.8675 C   0  0  0  0  0  0  0  0  0  0  0  0
   21.8248   14.6782   24.3745 H   0  0  0  0  0  0  0  0  0  0  0  0
   21.9831   15.5212   22.8073 H   0  0  0  0  0  0  0  0  0  0  0  0
   22.4468   16.3521   24.3203 H   0  0  0  0  0  0  0  0  0  0  0  0
  1  2  1  0  0  0  0
  1  3  1  0  0  0  0
  1  4  1  0  0  0  0
  4  5  1  0  0  0  0
  4  6  1  0  0  0  0
  4  7  1  0  0  0  0
  7  8  1  0  0  0  0
  7  9  1  0  0  0  0
  7 10  1  0  0  0  0
 10 11  1  0  0  0  0
 10 12  1  0  0  0  0
 10 13  1  0  0  0  0
 13 14  1  0  0  0  0
 13 15  1  0  0  0  0
 13 16  1  0  0  0  0
 16 17  1  0  0  0  0
 16 18  1  0  0  0  0
 16 19  1  0  0  0  0
 19 20  1  0  0  0  0
 19 21  1  0  0  0  0
 19 22  1  0  0  0  0
  1 23  1  0  0  0  0
 23 24  1  0  0  0  0
 23 25  1  0  0  0  0
 23 26  1  0  0  0  0
M  END
> <VConfSearch Rank>
548

> <Conf_Id>
45

> <Delta U+W>
0.471

> <U+W>
22.313

> <U>
71.138

> <W>
-48.825

> <W(PB)>
-51.169

> <W(SA)>
2.344

> <Valence>
2.016

> <Coulomb>
68.932

> <VdW>
0.190

> <VdW6>
-5.902

> <VdW12>
6.092

> <Bond>
0.149

> <Angle>
0.477

> <Pdih>
1.390

> <Idih>
0.000

> <Tether>
0.000

$$$$
VeraChem MOL file


 26 25  0  0  0  0  0  0  0  0999 V2000     
   20.5242   17.1206   21.6540 N   0  3  0  0  0  0  0  0  0  0  0  0
   19.5407   17.4110   21.5461 H   0  0  0  0  0  0  0  0  0  0  0  0
   20.5448   16.5198   22.4927 H   0  0  0  0  0  0  0  0  0  0  0  0
   21.4062   18.3367   21.8614 C   0  0  0  0  0  0  0  0  0  0  0  0
   21.3512   18.9509   20.9591 H   0  0  0  0  0  0  0  0  0  0  0  0
   22.4346   17.9834   21.9715 H   0  0  0  0  0  0  0  0  0  0  0  0
   21.0223   19.1843   23.0901 C   0  0  0  0  0  0  0  0  0  0  0  0
   21.0824   18.5593   23.9900 H   0  0  0  0  0  0  0  0  0  0  0  0
   21.7690   19.9806   23.2092 H   0  0  0  0  0  0  0  0  0  0  0  0
   19.6137   19.8163   22.9605 C   0  0  0  0  0  0  0  0  0  0  0  0
   18.8479   19.0297   22.9311 H   0  0  0  0  0  0  0  0  0  0  0  0
   19.5483   20.3480   22.0009 H   0  0  0  0  0  0  0  0  0  0  0  0
   19.2778   20.8130   24.0971 C   0  0  0  0  0  0  0  0  0  0  0  0
   20.0272   21.6164   24.1165 H   0  0  0  0  0  0  0  0  0  0  0  0
   18.3173   21.2941   23.8661 H   0  0  0  0  0  0  0  0  0  0  0  0
   19.1860   20.1516   25.4929 C   0  0  0  0  0  0  0  0  0  0  0  0
   20.1588   19.7295   25.7776 H   0  0  0  0  0  0  0  0  0  0  0  0
   18.4728   19.3161   25.4618 H   0  0  0  0  0  0  0  0  0  0  0  0
   18.7432   21.1614   26.5734 C   0  0  0  0  0  0  0  0  0  0  0  0
   19.4537   21.9948   26.6495 H   0  0  0  0  0  0  0  0  0  0  0  0
   18.6860   20.6768   27.5567 H   0  0  0  0  0  0  0  0  0  0  0  0
   17.7529   21.5762   26.3448 H   0  0  0  0  0  0  0  0  0  0  0  0
   20.9893   16.3454   20.4292 C   0  0  0  0  0  0  0  0  0  0  0  0
   22.0216   16.0219   20.5797 H   0  0  0  0  0  0  0  0  0  0  0  0
   20.3459   15.4736   20.2912 H   0  0  0  0  0  0  0  0  0  0  0  0
   20.9283   16.9916   19.5507 H   0  0  0  0  0  0  0  0  0  0  0  0
  1  2  1  0  0  0  0
  1  3  1  0  0  0  0
  1  4  1  0  0  0  0
  4  5  1  0  0  0  0
  4  6  1  0  0  0  0
  4  7  1  0  0  0  0
  7  8  1  0  0  0  0
  7  9  1  0  0  0  0
  7 10  1  0  0  0  0
 10 11  1  0  0  0  0
 10 12  1  0  0  0  0
 10 13  1  0  0  0  0
 13 14  1  0  0  0  0
 13 15  1  0  0  0  0
 13 16  1  0  0  0  0
 16 17  1  0  0  0  0
 16 18  1  0  0  0  0
 16 19  1  0  0  0  0
 19 20  1  0  0  0  0
 19 21  1  0  0  0  0
 19 22  1  0  0  0  0
  1 23  1  0  0  0  0
 23 24  1  0  0  0  0
 23 25  1  0  0  0  0
 23 26  1  0  0  0  0
M  END
> <VConfSearch Rank>
549

> <Conf_Id>
143

> <Delta U+W>
0.915

> <U+W>
22.757

> <U>
71.994

> <W>
-49.237

> <W(PB)>
-51.537

> <W(SA)>
2.300

> <Valence>
2.376

> <Coulomb>
69.315

> <VdW>
0.303

> <VdW6>
-6.508

> <VdW12>
6.810

> <Bond>
0.182

> <Angle>
0.660

> <Pdih>
1.534

> <Idih>
0.000

> <Tether>
0.000

$$$$
VeraChem MOL file


 26 25  0  0  0  0  0  0  0  0999 V2000     
   21.7822   20.3693   24.7117 N   0  3  0  0  0  0  0  0  0  0  0  0
   21.4808   19.6750   25.4119 H   0  0  0  0  0  0  0  0  0  0  0  0
   21.1529   21.1776   24.8354 H   0  0  0  0  0  0  0  0  0  0  0  0
   21.6320   19.8001   23.3140 C   0  0  0  0  0  0  0  0  0  0  0  0
   22.3038   18.9428   23.2238 H   0  0  0  0  0  0  0  0  0  0  0  0
   21.9627   20.5680   22.6100 H   0  0  0  0  0  0  0  0  0  0  0  0
   20.1936   19.3718   22.9616 C   0  0  0  0  0  0  0  0  0  0  0  0
   19.5155   20.2270   23.0820 H   0  0  0  0  0  0  0  0  0  0  0  0
   20.1771   19.0971   21.8999 H   0  0  0  0  0  0  0  0  0  0  0  0
   19.7005   18.1745   23.8105 C   0  0  0  0  0  0  0  0  0  0  0  0
   19.8159   18.4094   24.8767 H   0  0  0  0  0  0  0  0  0  0  0  0
   20.3428   17.3037   23.6187 H   0  0  0  0  0  0  0  0  0  0  0  0
   18.2193   17.7848   23.5668 C   0  0  0  0  0  0  0  0  0  0  0  0
   17.9783   16.9600   24.2518 H   0  0  0  0  0  0  0  0  0  0  0  0
   17.5580   18.6124   23.8582 H   0  0  0  0  0  0  0  0  0  0  0  0
   17.8948   17.3218   22.1228 C   0  0  0  0  0  0  0  0  0  0  0  0
   17.1416   16.5229   22.1725 H   0  0  0  0  0  0  0  0  0  0  0  0
   18.7820   16.8707   21.6571 H   0  0  0  0  0  0  0  0  0  0  0  0
   17.3320   18.4508   21.2277 C   0  0  0  0  0  0  0  0  0  0  0  0
   18.0395   19.2793   21.1131 H   0  0  0  0  0  0  0  0  0  0  0  0
   16.4025   18.8569   21.6476 H   0  0  0  0  0  0  0  0  0  0  0  0
   17.1037   18.0677   20.2247 H   0  0  0  0  0  0  0  0  0  0  0  0
   23.2292   20.7763   24.9529 C   0  0  0  0  0  0  0  0  0  0  0  0
   23.5157   21.5344   24.2207 H   0  0  0  0  0  0  0  0  0  0  0  0
   23.3234   21.1838   25.9619 H   0  0  0  0  0  0  0  0  0  0  0  0
   23.8713   19.8990   24.8479 H   0  0  0  0  0  0  0  0  0  0  0  0
  1  2  1  0  0  0  0
  1  3  1  0  0  0  0
  1  4  1  0  0  0  0
  4  5  1  0  0  0  0
  4  6  1  0  0  0  0
  4  7  1  0  0  0  0
  7  8  1  0  0  0  0
  7  9  1  0  0  0  0
  7 10  1  0  0  0  0
 10 11  1  0  0  0  0
 10 12  1  0  0  0  0
 10 13  1  0  0  0  0
 13 14  1  0  0  0  0
 13 15  1  0  0  0  0
 13 16  1  0  0  0  0
 16 17  1  0  0  0  0
 16 18  1  0  0  0  0
 16 19  1  0  0  0  0
 19 20  1  0  0  0  0
 19 21  1  0  0  0  0
 19 22  1  0  0  0  0
  1 23  1  0  0  0  0
 23 24  1  0  0  0  0
 23 25  1  0  0  0  0
 23 26  1  0  0  0  0
M  END
> <VConfSearch Rank>
550

> <Conf_Id>
76

> <Delta U+W>
3.468

> <U+W>
25.310

> <U>
74.594

> <W>
-49.283

> <W(PB)>
-51.537

> <W(SA)>
2.253

> <Valence>
4.886

> <Coulomb>
69.332

> <VdW>
0.376

> <VdW6>
-7.329

> <VdW12>
7.705

> <Bond>
0.232

> <Angle>
1.251

> <Pdih>
3.403

> <Idih>
0.000

> <Tether>
0.000

$$$$
VeraChem MOL file


 26 25  0  0  0  0  0  0  0  0999 V2000     
   19.1373   16.4770   23.4240 N   0  3  0  0  0  0  0  0  0  0  0  0
   18.3148   16.9076   23.8743 H   0  0  0  0  0  0  0  0  0  0  0  0
   19.6888   16.0671   24.1939 H   0  0  0  0  0  0  0  0  0  0  0  0
   19.9511   17.5321   22.7020 C   0  0  0  0  0  0  0  0  0  0  0  0
   19.3308   17.9448   21.9023 H   0  0  0  0  0  0  0  0  0  0  0  0
   20.8138   17.0378   22.2483 H   0  0  0  0  0  0  0  0  0  0  0  0
   20.4305   18.6681   23.6237 C   0  0  0  0  0  0  0  0  0  0  0  0
   19.5612   19.1413   24.0938 H   0  0  0  0  0  0  0  0  0  0  0  0
   21.0388   18.2449   24.4341 H   0  0  0  0  0  0  0  0  0  0  0  0
   21.2644   19.7124   22.8430 C   0  0  0  0  0  0  0  0  0  0  0  0
   20.6896   20.1032   21.9919 H   0  0  0  0  0  0  0  0  0  0  0  0
   22.1348   19.1993   22.4106 H   0  0  0  0  0  0  0  0  0  0  0  0
   21.7731   20.8830   23.7246 C   0  0  0  0  0  0  0  0  0  0  0  0
   21.9286   20.5434   24.7579 H   0  0  0  0  0  0  0  0  0  0  0  0
   22.7659   21.1799   23.3590 H   0  0  0  0  0  0  0  0  0  0  0  0
   20.8746   22.1464   23.7084 C   0  0  0  0  0  0  0  0  0  0  0  0
   20.8110   22.5402   22.6844 H   0  0  0  0  0  0  0  0  0  0  0  0
   21.3642   22.9292   24.3045 H   0  0  0  0  0  0  0  0  0  0  0  0
   19.4497   21.9230   24.2605 C   0  0  0  0  0  0  0  0  0  0  0  0
   19.4778   21.4669   25.2585 H   0  0  0  0  0  0  0  0  0  0  0  0
   18.8613   21.2780   23.5964 H   0  0  0  0  0  0  0  0  0  0  0  0
   18.9167   22.8790   24.3436 H   0  0  0  0  0  0  0  0  0  0  0  0
   18.7041   15.3960   22.4433 C   0  0  0  0  0  0  0  0  0  0  0  0
   18.0952   15.8476   21.6570 H   0  0  0  0  0  0  0  0  0  0  0  0
   19.5907   14.9327   22.0049 H   0  0  0  0  0  0  0  0  0  0  0  0
   18.1193   14.6427   22.9759 H   0  0  0  0  0  0  0  0  0  0  0  0
  1  2  1  0  0  0  0
  1  3  1  0  0  0  0
  1  4  1  0  0  0  0
  4  5  1  0  0  0  0
  4  6  1  0  0  0  0
  4  7  1  0  0  0  0
  7  8  1  0  0  0  0
  7  9  1  0  0  0  0
  7 10  1  0  0  0  0
 10 11  1  0  0  0  0
 10 12  1  0  0  0  0
 10 13  1  0  0  0  0
 13 14  1  0  0  0  0
 13 15  1  0  0  0  0
 13 16  1  0  0  0  0
 16 17  1  0  0  0  0
 16 18  1  0  0  0  0
 16 19  1  0  0  0  0
 19 20  1  0  0  0  0
 19 21  1  0  0  0  0
 19 22  1  0  0  0  0
  1 23  1  0  0  0  0
 23 24  1  0  0  0  0
 23 25  1  0  0  0  0
 23 26  1  0  0  0  0
M  END
> <VConfSearch Rank>
551

> <Conf_Id>
123

> <Delta U+W>
3.101

> <U+W>
24.943

> <U>
74.070

> <W>
-49.127

> <W(PB)>
-51.421

> <W(SA)>
2.295

> <Valence>
4.690

> <Coulomb>
69.115

> <VdW>
0.266

> <VdW6>
-6.809

> <VdW12>
7.075

> <Bond>
0.212

> <Angle>
1.133

> <Pdih>
3.345

> <Idih>
0.000

> <Tether>
0.000

$$$$
VeraChem MOL file


 26 25  0  0  0  0  0  0  0  0999 V2000     
   18.0739   20.2163   24.5758 N   0  3  0  0  0  0  0  0  0  0  0  0
   17.4133   19.4323   24.6930 H   0  0  0  0  0  0  0  0  0  0  0  0
   17.9647   20.5261   23.5984 H   0  0  0  0  0  0  0  0  0  0  0  0
   19.4942   19.7421   24.8161 C   0  0  0  0  0  0  0  0  0  0  0  0
   19.5634   19.4255   25.8600 H   0  0  0  0  0  0  0  0  0  0  0  0
   20.1631   20.5944   24.6732 H   0  0  0  0  0  0  0  0  0  0  0  0
   19.9309   18.5814   23.9007 C   0  0  0  0  0  0  0  0  0  0  0  0
   20.9208   18.2428   24.2264 H   0  0  0  0  0  0  0  0  0  0  0  0
   19.2527   17.7296   24.0434 H   0  0  0  0  0  0  0  0  0  0  0  0
   19.9663   18.9821   22.4037 C   0  0  0  0  0  0  0  0  0  0  0  0
   20.5659   19.8925   22.2654 H   0  0  0  0  0  0  0  0  0  0  0  0
   18.9467   19.2380   22.0862 H   0  0  0  0  0  0  0  0  0  0  0  0
   20.4917   17.8543   21.4772 C   0  0  0  0  0  0  0  0  0  0  0  0
   20.2605   16.8693   21.9056 H   0  0  0  0  0  0  0  0  0  0  0  0
   19.9358   17.9022   20.5304 H   0  0  0  0  0  0  0  0  0  0  0  0
   22.0011   17.9463   21.1356 C   0  0  0  0  0  0  0  0  0  0  0  0
   22.2038   18.8923   20.6143 H   0  0  0  0  0  0  0  0  0  0  0  0
   22.2460   17.1478   20.4213 H   0  0  0  0  0  0  0  0  0  0  0  0
   22.9395   17.8232   22.3561 C   0  0  0  0  0  0  0  0  0  0  0  0
   22.7230   16.9146   22.9327 H   0  0  0  0  0  0  0  0  0  0  0  0
   22.8456   18.6908   23.0207 H   0  0  0  0  0  0  0  0  0  0  0  0
   23.9866   17.7722   22.0309 H   0  0  0  0  0  0  0  0  0  0  0  0
   17.7360   21.3487   25.5354 C   0  0  0  0  0  0  0  0  0  0  0  0
   18.4277   22.1776   25.3705 H   0  0  0  0  0  0  0  0  0  0  0  0
   16.7117   21.6806   25.3514 H   0  0  0  0  0  0  0  0  0  0  0  0
   17.8280   20.9884   26.5624 H   0  0  0  0  0  0  0  0  0  0  0  0
  1  2  1  0  0  0  0
  1  3  1  0  0  0  0
  1  4  1  0  0  0  0
  4  5  1  0  0  0  0
  4  6  1  0  0  0  0
  4  7  1  0  0  0  0
  7  8  1  0  0  0  0
  7  9  1  0  0  0  0
  7 10  1  0  0  0  0
 10 11  1  0  0  0  0
 10 12  1  0  0  0  0
 10 13  1  0  0  0  0
 13 14  1  0  0  0  0
 13 15  1  0  0  0  0
 13 16  1  0  0  0  0
 16 17  1  0  0  0  0
 16 18  1  0  0  0  0
 16 19  1  0  0  0  0
 19 20  1  0  0  0  0
 19 21  1  0  0  0  0
 19 22  1  0  0  0  0
  1 23  1  0  0  0  0
 23 24  1  0  0  0  0
 23 25  1  0  0  0  0
 23 26  1  0  0  0  0
M  END
> <VConfSearch Rank>
552

> <Conf_Id>
111

> <Delta U+W>
3.383

> <U+W>
25.225

> <U>
74.516

> <W>
-49.292

> <W(PB)>
-51.558

> <W(SA)>
2.266

> <Valence>
4.842

> <Coulomb>
69.333

> <VdW>
0.342

> <VdW6>
-7.369

> <VdW12>
7.711

> <Bond>
0.232

> <Angle>
1.153

> <Pdih>
3.457

> <Idih>
0.000

> <Tether>
0.000

$$$$
VeraChem MOL file


 26 25  0  0  0  0  0  0  0  0999 V2000     
   19.8514   16.8485   22.5158 N   0  3  0  0  0  0  0  0  0  0  0  0
   19.0122   16.6397   21.9529 H   0  0  0  0  0  0  0  0  0  0  0  0
   19.4989   17.1784   23.4269 H   0  0  0  0  0  0  0  0  0  0  0  0
   20.6672   17.9397   21.8506 C   0  0  0  0  0  0  0  0  0  0  0  0
   21.0109   17.5552   20.8870 H   0  0  0  0  0  0  0  0  0  0  0  0
   21.5454   18.1297   22.4720 H   0  0  0  0  0  0  0  0  0  0  0  0
   19.8895   19.2537   21.6294 C   0  0  0  0  0  0  0  0  0  0  0  0
   20.5415   19.9638   21.1035 H   0  0  0  0  0  0  0  0  0  0  0  0
   19.0436   19.0604   20.9566 H   0  0  0  0  0  0  0  0  0  0  0  0
   19.3669   19.9097   22.9328 C   0  0  0  0  0  0  0  0  0  0  0  0
   18.6452   19.2437   23.4240 H   0  0  0  0  0  0  0  0  0  0  0  0
   18.8087   20.8139   22.6575 H   0  0  0  0  0  0  0  0  0  0  0  0
   20.4980   20.2810   23.9256 C   0  0  0  0  0  0  0  0  0  0  0  0
   21.0720   19.3813   24.1835 H   0  0  0  0  0  0  0  0  0  0  0  0
   21.2042   20.9696   23.4415 H   0  0  0  0  0  0  0  0  0  0  0  0
   19.9806   20.9131   25.2407 C   0  0  0  0  0  0  0  0  0  0  0  0
   20.8287   21.0370   25.9286 H   0  0  0  0  0  0  0  0  0  0  0  0
   19.2826   20.2236   25.7358 H   0  0  0  0  0  0  0  0  0  0  0  0
   19.3004   22.2867   25.0397 C   0  0  0  0  0  0  0  0  0  0  0  0
   18.3724   22.1976   24.4617 H   0  0  0  0  0  0  0  0  0  0  0  0
   19.9667   22.9848   24.5165 H   0  0  0  0  0  0  0  0  0  0  0  0
   19.0424   22.7326   26.0090 H   0  0  0  0  0  0  0  0  0  0  0  0
   20.7026   15.5989   22.6926 C   0  0  0  0  0  0  0  0  0  0  0  0
   20.1034   14.8223   23.1732 H   0  0  0  0  0  0  0  0  0  0  0  0
   21.0386   15.2520   21.7129 H   0  0  0  0  0  0  0  0  0  0  0  0
   21.5663   15.8380   23.3169 H   0  0  0  0  0  0  0  0  0  0  0  0
  1  2  1  0  0  0  0
  1  3  1  0  0  0  0
  1  4  1  0  0  0  0
  4  5  1  0  0  0  0
  4  6  1  0  0  0  0
  4  7  1  0  0  0  0
  7  8  1  0  0  0  0
  7  9  1  0  0  0  0
  7 10  1  0  0  0  0
 10 11  1  0  0  0  0
 10 12  1  0  0  0  0
 10 13  1  0  0  0  0
 13 14  1  0  0  0  0
 13 15  1  0  0  0  0
 13 16  1  0  0  0  0
 16 17  1  0  0  0  0
 16 18  1  0  0  0  0
 16 19  1  0  0  0  0
 19 20  1  0  0  0  0
 19 21  1  0  0  0  0
 19 22  1  0  0  0  0
  1 23  1  0  0  0  0
 23 24  1  0  0  0  0
 23 25  1  0  0  0  0
 23 26  1  0  0  0  0
M  END
> <VConfSearch Rank>
553

> <Conf_Id>
126

> <Delta U+W>
1.519

> <U+W>
23.361

> <U>
72.579

> <W>
-49.218

> <W(PB)>
-51.496

> <W(SA)>
2.279

> <Valence>
2.678

> <Coulomb>
69.622

> <VdW>
0.279

> <VdW6>
-7.328

> <VdW12>
7.608

> <Bond>
0.212

> <Angle>
0.911

> <Pdih>
1.555

> <Idih>
0.000

> <Tether>
0.000

$$$$
VeraChem MOL file


 26 25  0  0  0  0  0  0  0  0999 V2000     
   20.7701   16.8977   23.8398 N   0  3  0  0  0  0  0  0  0  0  0  0
   20.0872   17.4392   24.3907 H   0  0  0  0  0  0  0  0  0  0  0  0
   21.6175   16.8422   24.4258 H   0  0  0  0  0  0  0  0  0  0  0  0
   21.0791   17.6209   22.5435 C   0  0  0  0  0  0  0  0  0  0  0  0
   20.1620   17.6565   21.9510 H   0  0  0  0  0  0  0  0  0  0  0  0
   21.8123   17.0222   21.9971 H   0  0  0  0  0  0  0  0  0  0  0  0
   21.6293   19.0487   22.7410 C   0  0  0  0  0  0  0  0  0  0  0  0
   22.5805   18.9937   23.2869 H   0  0  0  0  0  0  0  0  0  0  0  0
   21.8667   19.4732   21.7565 H   0  0  0  0  0  0  0  0  0  0  0  0
   20.6646   20.0034   23.4893 C   0  0  0  0  0  0  0  0  0  0  0  0
   21.1652   20.9741   23.5992 H   0  0  0  0  0  0  0  0  0  0  0  0
   20.4880   19.6344   24.5083 H   0  0  0  0  0  0  0  0  0  0  0  0
   19.3107   20.1981   22.7600 C   0  0  0  0  0  0  0  0  0  0  0  0
   19.4875   20.5940   21.7505 H   0  0  0  0  0  0  0  0  0  0  0  0
   18.8198   19.2249   22.6282 H   0  0  0  0  0  0  0  0  0  0  0  0
   18.3323   21.1302   23.5156 C   0  0  0  0  0  0  0  0  0  0  0  0
   18.1419   20.7327   24.5223 H   0  0  0  0  0  0  0  0  0  0  0  0
   17.3647   21.1209   22.9944 H   0  0  0  0  0  0  0  0  0  0  0  0
   18.8265   22.5913   23.6180 C   0  0  0  0  0  0  0  0  0  0  0  0
   19.0556   23.0014   22.6259 H   0  0  0  0  0  0  0  0  0  0  0  0
   19.7265   22.6712   24.2399 H   0  0  0  0  0  0  0  0  0  0  0  0
   18.0552   23.2263   24.0729 H   0  0  0  0  0  0  0  0  0  0  0  0
   20.2327   15.5051   23.5416 C   0  0  0  0  0  0  0  0  0  0  0  0
   19.3200   15.5918   22.9480 H   0  0  0  0  0  0  0  0  0  0  0  0
   20.9845   14.9419   22.9844 H   0  0  0  0  0  0  0  0  0  0  0  0
   20.0136   14.9965   24.4831 H   0  0  0  0  0  0  0  0  0  0  0  0
  1  2  1  0  0  0  0
  1  3  1  0  0  0  0
  1  4  1  0  0  0  0
  4  5  1  0  0  0  0
  4  6  1  0  0  0  0
  4  7  1  0  0  0  0
  7  8  1  0  0  0  0
  7  9  1  0  0  0  0
  7 10  1  0  0  0  0
 10 11  1  0  0  0  0
 10 12  1  0  0  0  0
 10 13  1  0  0  0  0
 13 14  1  0  0  0  0
 13 15  1  0  0  0  0
 13 16  1  0  0  0  0
 16 17  1  0  0  0  0
 16 18  1  0  0  0  0
 16 19  1  0  0  0  0
 19 20  1  0  0  0  0
 19 21  1  0  0  0  0
 19 22  1  0  0  0  0
  1 23  1  0  0  0  0
 23 24  1  0  0  0  0
 23 25  1  0  0  0  0
 23 26  1  0  0  0  0
M  END
> <VConfSearch Rank>
554

> <Conf_Id>
134

> <Delta U+W>
1.464

> <U+W>
23.306

> <U>
72.579

> <W>
-49.273

> <W(PB)>
-51.540

> <W(SA)>
2.267

> <Valence>
2.677

> <Coulomb>
69.622

> <VdW>
0.280

> <VdW6>
-7.328

> <VdW12>
7.608

> <Bond>
0.212

> <Angle>
0.911

> <Pdih>
1.555

> <Idih>
0.000

> <Tether>
0.000

$$$$
VeraChem MOL file


 26 25  0  0  0  0  0  0  0  0999 V2000     
   22.7024   19.4146   24.3456 N   0  3  0  0  0  0  0  0  0  0  0  0
   22.6721   18.3996   24.5291 H   0  0  0  0  0  0  0  0  0  0  0  0
   22.5011   19.8639   25.2525 H   0  0  0  0  0  0  0  0  0  0  0  0
   21.6452   19.7941   23.3282 C   0  0  0  0  0  0  0  0  0  0  0  0
   21.8897   19.2934   22.3879 H   0  0  0  0  0  0  0  0  0  0  0  0
   21.7053   20.8737   23.1692 H   0  0  0  0  0  0  0  0  0  0  0  0
   20.2182   19.4130   23.7618 C   0  0  0  0  0  0  0  0  0  0  0  0
   20.1747   18.3305   23.9361 H   0  0  0  0  0  0  0  0  0  0  0  0
   19.9821   19.9052   24.7146 H   0  0  0  0  0  0  0  0  0  0  0  0
   19.1771   19.8209   22.6931 C   0  0  0  0  0  0  0  0  0  0  0  0
   19.3886   19.2991   21.7502 H   0  0  0  0  0  0  0  0  0  0  0  0
   19.2898   20.8922   22.4761 H   0  0  0  0  0  0  0  0  0  0  0  0
   17.7101   19.5619   23.1243 C   0  0  0  0  0  0  0  0  0  0  0  0
   17.4819   20.1795   24.0040 H   0  0  0  0  0  0  0  0  0  0  0  0
   17.0411   19.9162   22.3279 H   0  0  0  0  0  0  0  0  0  0  0  0
   17.3651   18.0856   23.4479 C   0  0  0  0  0  0  0  0  0  0  0  0
   16.3068   18.0299   23.7390 H   0  0  0  0  0  0  0  0  0  0  0  0
   17.9344   17.7452   24.3231 H   0  0  0  0  0  0  0  0  0  0  0  0
   17.6056   17.1235   22.2623 C   0  0  0  0  0  0  0  0  0  0  0  0
   17.0606   17.4543   21.3687 H   0  0  0  0  0  0  0  0  0  0  0  0
   17.2593   16.1121   22.5115 H   0  0  0  0  0  0  0  0  0  0  0  0
   18.6710   17.0544   22.0098 H   0  0  0  0  0  0  0  0  0  0  0  0
   24.0786   19.8250   23.8403 C   0  0  0  0  0  0  0  0  0  0  0  0
   24.0966   20.9060   23.6851 H   0  0  0  0  0  0  0  0  0  0  0  0
   24.8304   19.5462   24.5821 H   0  0  0  0  0  0  0  0  0  0  0  0
   24.2827   19.3123   22.8977 H   0  0  0  0  0  0  0  0  0  0  0  0
  1  2  1  0  0  0  0
  1  3  1  0  0  0  0
  1  4  1  0  0  0  0
  4  5  1  0  0  0  0
  4  6  1  0  0  0  0
  4  7  1  0  0  0  0
  7  8  1  0  0  0  0
  7  9  1  0  0  0  0
  7 10  1  0  0  0  0
 10 11  1  0  0  0  0
 10 12  1  0  0  0  0
 10 13  1  0  0  0  0
 13 14  1  0  0  0  0
 13 15  1  0  0  0  0
 13 16  1  0  0  0  0
 16 17  1  0  0  0  0
 16 18  1  0  0  0  0
 16 19  1  0  0  0  0
 19 20  1  0  0  0  0
 19 21  1  0  0  0  0
 19 22  1  0  0  0  0
  1 23  1  0  0  0  0
 23 24  1  0  0  0  0
 23 25  1  0  0  0  0
 23 26  1  0  0  0  0
M  END
> <VConfSearch Rank>
555

> <Conf_Id>
30

> <Delta U+W>
0.910

> <U+W>
22.752

> <U>
71.870

> <W>
-49.118

> <W(PB)>
-51.409

> <W(SA)>
2.290

> <Valence>
2.682

> <Coulomb>
68.933

> <VdW>
0.255

> <VdW6>
-6.833

> <VdW12>
7.088

> <Bond>
0.205

> <Angle>
1.003

> <Pdih>
1.473

> <Idih>
0.000

> <Tether>
0.000

$$$$
VeraChem MOL file


 26 25  0  0  0  0  0  0  0  0999 V2000     
   19.3899   17.5816   25.6160 N   0  3  0  0  0  0  0  0  0  0  0  0
   19.7487   18.2065   26.3547 H   0  0  0  0  0  0  0  0  0  0  0  0
   20.1913   16.9925   25.3414 H   0  0  0  0  0  0  0  0  0  0  0  0
   18.9084   18.3951   24.4314 C   0  0  0  0  0  0  0  0  0  0  0  0
   18.0680   19.0087   24.7657 H   0  0  0  0  0  0  0  0  0  0  0  0
   18.5454   17.6985   23.6716 H   0  0  0  0  0  0  0  0  0  0  0  0
   20.0003   19.2968   23.8277 C   0  0  0  0  0  0  0  0  0  0  0  0
   20.3735   19.9844   24.5982 H   0  0  0  0  0  0  0  0  0  0  0  0
   20.8457   18.6722   23.5128 H   0  0  0  0  0  0  0  0  0  0  0  0
   19.4609   20.1059   22.6249 C   0  0  0  0  0  0  0  0  0  0  0  0
   18.5683   20.6633   22.9415 H   0  0  0  0  0  0  0  0  0  0  0  0
   19.1232   19.4196   21.8369 H   0  0  0  0  0  0  0  0  0  0  0  0
   20.4861   21.1148   22.0451 C   0  0  0  0  0  0  0  0  0  0  0  0
   20.0087   21.6709   21.2266 H   0  0  0  0  0  0  0  0  0  0  0  0
   20.7268   21.8616   22.8143 H   0  0  0  0  0  0  0  0  0  0  0  0
   21.8066   20.4922   21.5236 C   0  0  0  0  0  0  0  0  0  0  0  0
   22.3644   20.0350   22.3518 H   0  0  0  0  0  0  0  0  0  0  0  0
   22.4466   21.2998   21.1415 H   0  0  0  0  0  0  0  0  0  0  0  0
   21.5948   19.4521   20.4001 C   0  0  0  0  0  0  0  0  0  0  0  0
   21.0592   18.5674   20.7663 H   0  0  0  0  0  0  0  0  0  0  0  0
   22.5603   19.1125   20.0033 H   0  0  0  0  0  0  0  0  0  0  0  0
   21.0221   19.8812   19.5678 H   0  0  0  0  0  0  0  0  0  0  0  0
   18.2531   16.7213   26.1501 C   0  0  0  0  0  0  0  0  0  0  0  0
   18.6130   16.1409   27.0025 H   0  0  0  0  0  0  0  0  0  0  0  0
   17.4308   17.3677   26.4647 H   0  0  0  0  0  0  0  0  0  0  0  0
   17.9125   16.0464   25.3617 H   0  0  0  0  0  0  0  0  0  0  0  0
  1  2  1  0  0  0  0
  1  3  1  0  0  0  0
  1  4  1  0  0  0  0
  4  5  1  0  0  0  0
  4  6  1  0  0  0  0
  4  7  1  0  0  0  0
  7  8  1  0  0  0  0
  7  9  1  0  0  0  0
  7 10  1  0  0  0  0
 10 11  1  0  0  0  0
 10 12  1  0  0  0  0
 10 13  1  0  0  0  0
 13 14  1  0  0  0  0
 13 15  1  0  0  0  0
 13 16  1  0  0  0  0
 16 17  1  0  0  0  0
 16 18  1  0  0  0  0
 16 19  1  0  0  0  0
 19 20  1  0  0  0  0
 19 21  1  0  0  0  0
 19 22  1  0  0  0  0
  1 23  1  0  0  0  0
 23 24  1  0  0  0  0
 23 25  1  0  0  0  0
 23 26  1  0  0  0  0
M  END
> <VConfSearch Rank>
556

> <Conf_Id>
29

> <Delta U+W>
0.886

> <U+W>
22.729

> <U>
71.870

> <W>
-49.141

> <W(PB)>
-51.404

> <W(SA)>
2.262

> <Valence>
2.682

> <Coulomb>
68.933

> <VdW>
0.255

> <VdW6>
-6.833

> <VdW12>
7.088

> <Bond>
0.205

> <Angle>
1.003

> <Pdih>
1.473

> <Idih>
0.000

> <Tether>
0.000

$$$$
VeraChem MOL file


 26 25  0  0  0  0  0  0  0  0999 V2000     
   21.1038   19.5923   25.6343 N   0  3  0  0  0  0  0  0  0  0  0  0
   21.3322   18.7730   26.2185 H   0  0  0  0  0  0  0  0  0  0  0  0
   20.1594   19.8851   25.9291 H   0  0  0  0  0  0  0  0  0  0  0  0
   21.0983   19.2045   24.1695 C   0  0  0  0  0  0  0  0  0  0  0  0
   22.1099   18.8897   23.9015 H   0  0  0  0  0  0  0  0  0  0  0  0
   20.8497   20.0966   23.5895 H   0  0  0  0  0  0  0  0  0  0  0  0
   20.1008   18.0773   23.8413 C   0  0  0  0  0  0  0  0  0  0  0  0
   20.3372   17.1980   24.4549 H   0  0  0  0  0  0  0  0  0  0  0  0
   19.0865   18.3867   24.1240 H   0  0  0  0  0  0  0  0  0  0  0  0
   20.1325   17.6681   22.3477 C   0  0  0  0  0  0  0  0  0  0  0  0
   19.4163   16.8519   22.1837 H   0  0  0  0  0  0  0  0  0  0  0  0
   21.1201   17.2455   22.1166 H   0  0  0  0  0  0  0  0  0  0  0  0
   19.8423   18.8218   21.3498 C   0  0  0  0  0  0  0  0  0  0  0  0
   20.6549   19.5592   21.3980 H   0  0  0  0  0  0  0  0  0  0  0  0
   19.8721   18.4176   20.3286 H   0  0  0  0  0  0  0  0  0  0  0  0
   18.4906   19.5509   21.5594 C   0  0  0  0  0  0  0  0  0  0  0  0
   18.4028   20.3483   20.8084 H   0  0  0  0  0  0  0  0  0  0  0  0
   18.4780   20.0549   22.5351 H   0  0  0  0  0  0  0  0  0  0  0  0
   17.2651   18.6169   21.4386 C   0  0  0  0  0  0  0  0  0  0  0  0
   16.3336   19.1933   21.5095 H   0  0  0  0  0  0  0  0  0  0  0  0
   17.2506   17.8661   22.2383 H   0  0  0  0  0  0  0  0  0  0  0  0
   17.2625   18.0923   20.4743 H   0  0  0  0  0  0  0  0  0  0  0  0
   22.1078   20.7123   25.8694 C   0  0  0  0  0  0  0  0  0  0  0  0
   22.1023   20.9819   26.9279 H   0  0  0  0  0  0  0  0  0  0  0  0
   23.1037   20.3681   25.5817 H   0  0  0  0  0  0  0  0  0  0  0  0
   21.8271   21.5788   25.2666 H   0  0  0  0  0  0  0  0  0  0  0  0
  1  2  1  0  0  0  0
  1  3  1  0  0  0  0
  1  4  1  0  0  0  0
  4  5  1  0  0  0  0
  4  6  1  0  0  0  0
  4  7  1  0  0  0  0
  7  8  1  0  0  0  0
  7  9  1  0  0  0  0
  7 10  1  0  0  0  0
 10 11  1  0  0  0  0
 10 12  1  0  0  0  0
 10 13  1  0  0  0  0
 13 14  1  0  0  0  0
 13 15  1  0  0  0  0
 13 16  1  0  0  0  0
 16 17  1  0  0  0  0
 16 18  1  0  0  0  0
 16 19  1  0  0  0  0
 19 20  1  0  0  0  0
 19 21  1  0  0  0  0
 19 22  1  0  0  0  0
  1 23  1  0  0  0  0
 23 24  1  0  0  0  0
 23 25  1  0  0  0  0
 23 26  1  0  0  0  0
M  END
> <VConfSearch Rank>
557

> <Conf_Id>
82

> <Delta U+W>
1.026

> <U+W>
22.868

> <U>
72.455

> <W>
-49.586

> <W(PB)>
-51.821

> <W(SA)>
2.234

> <Valence>
2.908

> <Coulomb>
69.435

> <VdW>
0.112

> <VdW6>
-7.765

> <VdW12>
7.877

> <Bond>
0.233

> <Angle>
1.170

> <Pdih>
1.506

> <Idih>
0.000

> <Tether>
0.000

$$$$
VeraChem MOL file


 26 25  0  0  0  0  0  0  0  0999 V2000     
   20.1254   17.3274   21.3441 N   0  3  0  0  0  0  0  0  0  0  0  0
   21.0351   17.7415   21.0881 H   0  0  0  0  0  0  0  0  0  0  0  0
   19.4993   17.5264   20.5484 H   0  0  0  0  0  0  0  0  0  0  0  0
   19.5910   17.9766   22.6047 C   0  0  0  0  0  0  0  0  0  0  0  0
   20.2828   17.7447   23.4181 H   0  0  0  0  0  0  0  0  0  0  0  0
   18.6244   17.5208   22.8335 H   0  0  0  0  0  0  0  0  0  0  0  0
   19.4276   19.5035   22.4817 C   0  0  0  0  0  0  0  0  0  0  0  0
   20.3949   19.9607   22.2370 H   0  0  0  0  0  0  0  0  0  0  0  0
   18.7592   19.7269   21.6396 H   0  0  0  0  0  0  0  0  0  0  0  0
   18.8473   20.1473   23.7654 C   0  0  0  0  0  0  0  0  0  0  0  0
   17.8283   19.7676   23.9232 H   0  0  0  0  0  0  0  0  0  0  0  0
   18.7384   21.2285   23.6072 H   0  0  0  0  0  0  0  0  0  0  0  0
   19.6753   19.8920   25.0539 C   0  0  0  0  0  0  0  0  0  0  0  0
   19.1857   20.4059   25.8926 H   0  0  0  0  0  0  0  0  0  0  0  0
   19.6414   18.8230   25.3038 H   0  0  0  0  0  0  0  0  0  0  0  0
   21.1563   20.3444   24.9866 C   0  0  0  0  0  0  0  0  0  0  0  0
   21.6958   19.7670   24.2240 H   0  0  0  0  0  0  0  0  0  0  0  0
   21.6399   20.1033   25.9436 H   0  0  0  0  0  0  0  0  0  0  0  0
   21.3237   21.8562   24.7121 C   0  0  0  0  0  0  0  0  0  0  0  0
   20.9521   22.1282   23.7164 H   0  0  0  0  0  0  0  0  0  0  0  0
   22.3828   22.1407   24.7587 H   0  0  0  0  0  0  0  0  0  0  0  0
   20.7824   22.4546   25.4563 H   0  0  0  0  0  0  0  0  0  0  0  0
   20.2624   15.8257   21.5534 C   0  0  0  0  0  0  0  0  0  0  0  0
   19.2825   15.4053   21.7904 H   0  0  0  0  0  0  0  0  0  0  0  0
   20.6477   15.3702   20.6384 H   0  0  0  0  0  0  0  0  0  0  0  0
   20.9543   15.6395   22.3777 H   0  0  0  0  0  0  0  0  0  0  0  0
  1  2  1  0  0  0  0
  1  3  1  0  0  0  0
  1  4  1  0  0  0  0
  4  5  1  0  0  0  0
  4  6  1  0  0  0  0
  4  7  1  0  0  0  0
  7  8  1  0  0  0  0
  7  9  1  0  0  0  0
  7 10  1  0  0  0  0
 10 11  1  0  0  0  0
 10 12  1  0  0  0  0
 10 13  1  0  0  0  0
 13 14  1  0  0  0  0
 13 15  1  0  0  0  0
 13 16  1  0  0  0  0
 16 17  1  0  0  0  0
 16 18  1  0  0  0  0
 16 19  1  0  0  0  0
 19 20  1  0  0  0  0
 19 21  1  0  0  0  0
 19 22  1  0  0  0  0
  1 23  1  0  0  0  0
 23 24  1  0  0  0  0
 23 25  1  0  0  0  0
 23 26  1  0  0  0  0
M  END
> <VConfSearch Rank>
558

> <Conf_Id>
71

> <Delta U+W>
1.096

> <U+W>
22.938

> <U>
72.455

> <W>
-49.517

> <W(PB)>
-51.795

> <W(SA)>
2.278

> <Valence>
2.908

> <Coulomb>
69.435

> <VdW>
0.112

> <VdW6>
-7.766

> <VdW12>
7.877

> <Bond>
0.233

> <Angle>
1.170

> <Pdih>
1.506

> <Idih>
0.000

> <Tether>
0.000

$$$$
VeraChem MOL file


 26 25  0  0  0  0  0  0  0  0999 V2000     
   22.3128   18.9563   22.4237 N   0  3  0  0  0  0  0  0  0  0  0  0
   21.8039   18.1670   22.8489 H   0  0  0  0  0  0  0  0  0  0  0  0
   23.2609   18.9170   22.8304 H   0  0  0  0  0  0  0  0  0  0  0  0
   21.6477   20.2691   22.8056 C   0  0  0  0  0  0  0  0  0  0  0  0
   22.2037   21.0759   22.3215 H   0  0  0  0  0  0  0  0  0  0  0  0
   21.7582   20.3891   23.8859 H   0  0  0  0  0  0  0  0  0  0  0  0
   20.1509   20.3785   22.4354 C   0  0  0  0  0  0  0  0  0  0  0  0
   19.7795   21.3582   22.7640 H   0  0  0  0  0  0  0  0  0  0  0  0
   20.0451   20.3675   21.3429 H   0  0  0  0  0  0  0  0  0  0  0  0
   19.2627   19.2650   23.0459 C   0  0  0  0  0  0  0  0  0  0  0  0
   19.5758   18.2854   22.6608 H   0  0  0  0  0  0  0  0  0  0  0  0
   18.2350   19.4177   22.6918 H   0  0  0  0  0  0  0  0  0  0  0  0
   19.2801   19.2512   24.5958 C   0  0  0  0  0  0  0  0  0  0  0  0
   20.3113   19.1287   24.9520 H   0  0  0  0  0  0  0  0  0  0  0  0
   18.9349   20.2217   24.9782 H   0  0  0  0  0  0  0  0  0  0  0  0
   18.4218   18.1194   25.2114 C   0  0  0  0  0  0  0  0  0  0  0  0
   18.5799   18.1100   26.2989 H   0  0  0  0  0  0  0  0  0  0  0  0
   18.7710   17.1448   24.8425 H   0  0  0  0  0  0  0  0  0  0  0  0
   16.9090   18.2700   24.9312 C   0  0  0  0  0  0  0  0  0  0  0  0
   16.6825   18.1589   23.8637 H   0  0  0  0  0  0  0  0  0  0  0  0
   16.5417   19.2503   25.2613 H   0  0  0  0  0  0  0  0  0  0  0  0
   16.3406   17.5006   25.4696 H   0  0  0  0  0  0  0  0  0  0  0  0
   22.3900   18.7974   20.9098 C   0  0  0  0  0  0  0  0  0  0  0  0
   22.8993   17.8603   20.6742 H   0  0  0  0  0  0  0  0  0  0  0  0
   21.3794   18.7801   20.4968 H   0  0  0  0  0  0  0  0  0  0  0  0
   22.9483   19.6365   20.4892 H   0  0  0  0  0  0  0  0  0  0  0  0
  1  2  1  0  0  0  0
  1  3  1  0  0  0  0
  1  4  1  0  0  0  0
  4  5  1  0  0  0  0
  4  6  1  0  0  0  0
  4  7  1  0  0  0  0
  7  8  1  0  0  0  0
  7  9  1  0  0  0  0
  7 10  1  0  0  0  0
 10 11  1  0  0  0  0
 10 12  1  0  0  0  0
 10 13  1  0  0  0  0
 13 14  1  0  0  0  0
 13 15  1  0  0  0  0
 13 16  1  0  0  0  0
 16 17  1  0  0  0  0
 16 18  1  0  0  0  0
 16 19  1  0  0  0  0
 19 20  1  0  0  0  0
 19 21  1  0  0  0  0
 19 22  1  0  0  0  0
  1 23  1  0  0  0  0
 23 24  1  0  0  0  0
 23 25  1  0  0  0  0
 23 26  1  0  0  0  0
M  END
> <VConfSearch Rank>
559

> <Conf_Id>
84

> <Delta U+W>
1.456

> <U+W>
23.298

> <U>
73.042

> <W>
-49.744

> <W(PB)>
-51.966

> <W(SA)>
2.222

> <Valence>
2.938

> <Coulomb>
69.625

> <VdW>
0.478

> <VdW6>
-8.182

> <VdW12>
8.660

> <Bond>
0.253

> <Angle>
1.038

> <Pdih>
1.647

> <Idih>
0.000

> <Tether>
0.000

$$$$
VeraChem MOL file


 26 25  0  0  0  0  0  0  0  0999 V2000     
   18.3004   20.3595   24.4183 N   0  3  0  0  0  0  0  0  0  0  0  0
   19.2380   20.7190   24.1840 H   0  0  0  0  0  0  0  0  0  0  0  0
   18.2333   20.4097   25.4467 H   0  0  0  0  0  0  0  0  0  0  0  0
   18.1671   18.9215   23.9566 C   0  0  0  0  0  0  0  0  0  0  0  0
   18.2390   18.9099   22.8665 H   0  0  0  0  0  0  0  0  0  0  0  0
   17.1681   18.5759   24.2342 H   0  0  0  0  0  0  0  0  0  0  0  0
   19.2233   17.9721   24.5591 C   0  0  0  0  0  0  0  0  0  0  0  0
   19.1073   17.9514   25.6509 H   0  0  0  0  0  0  0  0  0  0  0  0
   19.0175   16.9513   24.2108 H   0  0  0  0  0  0  0  0  0  0  0  0
   20.6848   18.3470   24.2058 C   0  0  0  0  0  0  0  0  0  0  0  0
   21.3568   17.6236   24.6881 H   0  0  0  0  0  0  0  0  0  0  0  0
   20.9343   19.3265   24.6354 H   0  0  0  0  0  0  0  0  0  0  0  0
   20.9605   18.3578   22.6828 C   0  0  0  0  0  0  0  0  0  0  0  0
   20.6869   17.3840   22.2535 H   0  0  0  0  0  0  0  0  0  0  0  0
   20.3296   19.1103   22.1911 H   0  0  0  0  0  0  0  0  0  0  0  0
   22.4432   18.6590   22.3698 C   0  0  0  0  0  0  0  0  0  0  0  0
   23.0844   17.9055   22.8485 H   0  0  0  0  0  0  0  0  0  0  0  0
   22.7232   19.6314   22.7987 H   0  0  0  0  0  0  0  0  0  0  0  0
   22.7161   18.6721   20.8506 C   0  0  0  0  0  0  0  0  0  0  0  0
   22.4773   17.7008   20.3981 H   0  0  0  0  0  0  0  0  0  0  0  0
   23.7735   18.8867   20.6485 H   0  0  0  0  0  0  0  0  0  0  0  0
   22.1145   19.4405   20.3477 H   0  0  0  0  0  0  0  0  0  0  0  0
   17.2221   21.2151   23.7686 C   0  0  0  0  0  0  0  0  0  0  0  0
   16.2398   20.8335   24.0554 H   0  0  0  0  0  0  0  0  0  0  0  0
   17.3305   22.2474   24.1088 H   0  0  0  0  0  0  0  0  0  0  0  0
   17.3339   21.1707   22.6830 H   0  0  0  0  0  0  0  0  0  0  0  0
  1  2  1  0  0  0  0
  1  3  1  0  0  0  0
  1  4  1  0  0  0  0
  4  5  1  0  0  0  0
  4  6  1  0  0  0  0
  4  7  1  0  0  0  0
  7  8  1  0  0  0  0
  7  9  1  0  0  0  0
  7 10  1  0  0  0  0
 10 11  1  0  0  0  0
 10 12  1  0  0  0  0
 10 13  1  0  0  0  0
 13 14  1  0  0  0  0
 13 15  1  0  0  0  0
 13 16  1  0  0  0  0
 16 17  1  0  0  0  0
 16 18  1  0  0  0  0
 16 19  1  0  0  0  0
 19 20  1  0  0  0  0
 19 21  1  0  0  0  0
 19 22  1  0  0  0  0
  1 23  1  0  0  0  0
 23 24  1  0  0  0  0
 23 25  1  0  0  0  0
 23 26  1  0  0  0  0
M  END
> <VConfSearch Rank>
560

> <Conf_Id>
73

> <Delta U+W>
0.884

> <U+W>
22.726

> <U>
71.905

> <W>
-49.179

> <W(PB)>
-51.494

> <W(SA)>
2.315

> <Valence>
2.125

> <Coulomb>
69.686

> <VdW>
0.093

> <VdW6>
-6.766

> <VdW12>
6.859

> <Bond>
0.169

> <Angle>
0.621

> <Pdih>
1.336

> <Idih>
0.000

> <Tether>
0.000

$$$$
VeraChem MOL file


 26 25  0  0  0  0  0  0  0  0999 V2000     
   20.8217   17.8985   26.1955 N   0  3  0  0  0  0  0  0  0  0  0  0
   21.8087   17.6999   25.9693 H   0  0  0  0  0  0  0  0  0  0  0  0
   20.3271   17.0005   26.0781 H   0  0  0  0  0  0  0  0  0  0  0  0
   20.2634   18.9321   25.2380 C   0  0  0  0  0  0  0  0  0  0  0  0
   20.8176   19.8621   25.3881 H   0  0  0  0  0  0  0  0  0  0  0  0
   19.2183   19.1071   25.5056 H   0  0  0  0  0  0  0  0  0  0  0  0
   20.3557   18.5066   23.7614 C   0  0  0  0  0  0  0  0  0  0  0  0
   21.4056   18.3159   23.5014 H   0  0  0  0  0  0  0  0  0  0  0  0
   19.8116   17.5635   23.6185 H   0  0  0  0  0  0  0  0  0  0  0  0
   19.7759   19.5890   22.8239 C   0  0  0  0  0  0  0  0  0  0  0  0
   20.3194   20.5324   22.9737 H   0  0  0  0  0  0  0  0  0  0  0  0
   18.7273   19.7810   23.0909 H   0  0  0  0  0  0  0  0  0  0  0  0
   19.8632   19.1725   21.3379 C   0  0  0  0  0  0  0  0  0  0  0  0
   20.9117   18.9806   21.0708 H   0  0  0  0  0  0  0  0  0  0  0  0
   19.3197   18.2293   21.1879 H   0  0  0  0  0  0  0  0  0  0  0  0
   19.2832   20.2552   20.4006 C   0  0  0  0  0  0  0  0  0  0  0  0
   19.8252   21.2004   20.5451 H   0  0  0  0  0  0  0  0  0  0  0  0
   18.2334   20.4491   20.6622 H   0  0  0  0  0  0  0  0  0  0  0  0
   19.3720   19.8359   18.9177 C   0  0  0  0  0  0  0  0  0  0  0  0
   18.9556   20.6169   18.2683 H   0  0  0  0  0  0  0  0  0  0  0  0
   18.8100   18.9108   18.7345 H   0  0  0  0  0  0  0  0  0  0  0  0
   20.4142   19.6680   18.6165 H   0  0  0  0  0  0  0  0  0  0  0  0
   20.6919   18.3962   27.6285 C   0  0  0  0  0  0  0  0  0  0  0  0
   19.6373   18.5674   27.8552 H   0  0  0  0  0  0  0  0  0  0  0  0
   21.0975   17.6427   28.3075 H   0  0  0  0  0  0  0  0  0  0  0  0
   21.2500   19.3288   27.7368 H   0  0  0  0  0  0  0  0  0  0  0  0
  1  2  1  0  0  0  0
  1  3  1  0  0  0  0
  1  4  1  0  0  0  0
  4  5  1  0  0  0  0
  4  6  1  0  0  0  0
  4  7  1  0  0  0  0
  7  8  1  0  0  0  0
  7  9  1  0  0  0  0
  7 10  1  0  0  0  0
 10 11  1  0  0  0  0
 10 12  1  0  0  0  0
 10 13  1  0  0  0  0
 13 14  1  0  0  0  0
 13 15  1  0  0  0  0
 13 16  1  0  0  0  0
 16 17  1  0  0  0  0
 16 18  1  0  0  0  0
 16 19  1  0  0  0  0
 19 20  1  0  0  0  0
 19 21  1  0  0  0  0
 19 22  1  0  0  0  0
  1 23  1  0  0  0  0
 23 24  1  0  0  0  0
 23 25  1  0  0  0  0
 23 26  1  0  0  0  0
M  END
> <VConfSearch Rank>
561

> <Conf_Id>
11

> <Delta U+W>
0.000

> <U+W>
21.842

> <U>
70.357

> <W>
-48.515

> <W(PB)>
-50.856

> <W(SA)>
2.341

> <Valence>
1.714

> <Coulomb>
68.480

> <VdW>
0.163

> <VdW6>
-5.268

> <VdW12>
5.431

> <Bond>
0.126

> <Angle>
0.350

> <Pdih>
1.238

> <Idih>
0.000

> <Tether>
0.000

$$$$
VeraChem MOL file


 26 25  0  0  0  0  0  0  0  0999 V2000     
   19.6533   17.1951   20.4560 N   0  3  0  0  0  0  0  0  0  0  0  0
   20.2139   16.9356   19.6288 H   0  0  0  0  0  0  0  0  0  0  0  0
   18.8766   17.7630   20.0835 H   0  0  0  0  0  0  0  0  0  0  0  0
   20.5021   18.0241   21.4055 C   0  0  0  0  0  0  0  0  0  0  0  0
   20.9795   18.8087   20.8129 H   0  0  0  0  0  0  0  0  0  0  0  0
   21.2867   17.3779   21.8070 H   0  0  0  0  0  0  0  0  0  0  0  0
   19.7175   18.6771   22.5616 C   0  0  0  0  0  0  0  0  0  0  0  0
   18.9007   19.2846   22.1499 H   0  0  0  0  0  0  0  0  0  0  0  0
   19.2578   17.8988   23.1844 H   0  0  0  0  0  0  0  0  0  0  0  0
   20.6340   19.5616   23.4357 C   0  0  0  0  0  0  0  0  0  0  0  0
   21.0957   20.3395   22.8117 H   0  0  0  0  0  0  0  0  0  0  0  0
   21.4535   18.9514   23.8405 H   0  0  0  0  0  0  0  0  0  0  0  0
   19.8593   20.2235   24.5981 C   0  0  0  0  0  0  0  0  0  0  0  0
   19.0397   20.8335   24.1935 H   0  0  0  0  0  0  0  0  0  0  0  0
   19.3978   19.4458   25.2224 H   0  0  0  0  0  0  0  0  0  0  0  0
   20.7762   21.1081   25.4722 C   0  0  0  0  0  0  0  0  0  0  0  0
   21.2385   21.8895   24.8527 H   0  0  0  0  0  0  0  0  0  0  0  0
   21.5966   20.5019   25.8814 H   0  0  0  0  0  0  0  0  0  0  0  0
   19.9993   21.7673   26.6318 C   0  0  0  0  0  0  0  0  0  0  0  0
   20.6668   22.3909   27.2406 H   0  0  0  0  0  0  0  0  0  0  0  0
   19.5535   21.0098   27.2895 H   0  0  0  0  0  0  0  0  0  0  0  0
   19.1927   22.4083   26.2528 H   0  0  0  0  0  0  0  0  0  0  0  0
   19.1270   15.9380   21.1394 C   0  0  0  0  0  0  0  0  0  0  0  0
   18.4825   16.2223   21.9736 H   0  0  0  0  0  0  0  0  0  0  0  0
   18.5546   15.3518   20.4170 H   0  0  0  0  0  0  0  0  0  0  0  0
   19.9705   15.3491   21.5062 H   0  0  0  0  0  0  0  0  0  0  0  0
  1  2  1  0  0  0  0
  1  3  1  0  0  0  0
  1  4  1  0  0  0  0
  4  5  1  0  0  0  0
  4  6  1  0  0  0  0
  4  7  1  0  0  0  0
  7  8  1  0  0  0  0
  7  9  1  0  0  0  0
  7 10  1  0  0  0  0
 10 11  1  0  0  0  0
 10 12  1  0  0  0  0
 10 13  1  0  0  0  0
 13 14  1  0  0  0  0
 13 15  1  0  0  0  0
 13 16  1  0  0  0  0
 16 17  1  0  0  0  0
 16 18  1  0  0  0  0
 16 19  1  0  0  0  0
 19 20  1  0  0  0  0
 19 21  1  0  0  0  0
 19 22  1  0  0  0  0
  1 23  1  0  0  0  0
 23 24  1  0  0  0  0
 23 25  1  0  0  0  0
 23 26  1  0  0  0  0
M  END
> <VConfSearch Rank>
562

> <Conf_Id>
102

> <Delta U+W>
0.121

> <U+W>
21.963

> <U>
70.745

> <W>
-48.782

> <W(PB)>
-51.111

> <W(SA)>
2.329

> <Valence>
1.993

> <Coulomb>
68.323

> <VdW>
0.429

> <VdW6>
-5.973

> <VdW12>
6.402

> <Bond>
0.161

> <Angle>
0.472

> <Pdih>
1.360

> <Idih>
0.000

> <Tether>
0.000

$$$$
VeraChem MOL file


 26 25  0  0  0  0  0  0  0  0999 V2000     
   22.9162   18.3466   25.0097 N   0  3  0  0  0  0  0  0  0  0  0  0
   22.4109   18.0983   25.8742 H   0  0  0  0  0  0  0  0  0  0  0  0
   23.7691   18.8323   25.3302 H   0  0  0  0  0  0  0  0  0  0  0  0
   22.0793   19.2931   24.1653 C   0  0  0  0  0  0  0  0  0  0  0  0
   22.6307   19.4996   23.2445 H   0  0  0  0  0  0  0  0  0  0  0  0
   21.9868   20.2291   24.7222 H   0  0  0  0  0  0  0  0  0  0  0  0
   20.6684   18.7708   23.8259 C   0  0  0  0  0  0  0  0  0  0  0  0
   20.7459   17.8465   23.2390 H   0  0  0  0  0  0  0  0  0  0  0  0
   20.1401   18.5192   24.7550 H   0  0  0  0  0  0  0  0  0  0  0  0
   19.8556   19.8179   23.0327 C   0  0  0  0  0  0  0  0  0  0  0  0
   20.3908   20.0718   22.1070 H   0  0  0  0  0  0  0  0  0  0  0  0
   19.7796   20.7439   23.6196 H   0  0  0  0  0  0  0  0  0  0  0  0
   18.4382   19.3072   22.6869 C   0  0  0  0  0  0  0  0  0  0  0  0
   18.5140   18.3815   22.0997 H   0  0  0  0  0  0  0  0  0  0  0  0
   17.9031   19.0531   23.6125 H   0  0  0  0  0  0  0  0  0  0  0  0
   17.6255   20.3548   21.8937 C   0  0  0  0  0  0  0  0  0  0  0  0
   18.1556   20.6108   20.9655 H   0  0  0  0  0  0  0  0  0  0  0  0
   17.5445   21.2821   22.4781 H   0  0  0  0  0  0  0  0  0  0  0  0
   16.2109   19.8413   21.5500 C   0  0  0  0  0  0  0  0  0  0  0  0
   16.2589   18.9325   20.9360 H   0  0  0  0  0  0  0  0  0  0  0  0
   15.6496   20.5985   20.9873 H   0  0  0  0  0  0  0  0  0  0  0  0
   15.6431   19.6089   22.4604 H   0  0  0  0  0  0  0  0  0  0  0  0
   23.2968   17.0959   24.2254 C   0  0  0  0  0  0  0  0  0  0  0  0
   23.8454   17.3885   23.3275 H   0  0  0  0  0  0  0  0  0  0  0  0
   23.9268   16.4599   24.8513 H   0  0  0  0  0  0  0  0  0  0  0  0
   22.3910   16.5539   23.9465 H   0  0  0  0  0  0  0  0  0  0  0  0
  1  2  1  0  0  0  0
  1  3  1  0  0  0  0
  1  4  1  0  0  0  0
  4  5  1  0  0  0  0
  4  6  1  0  0  0  0
  4  7  1  0  0  0  0
  7  8  1  0  0  0  0
  7  9  1  0  0  0  0
  7 10  1  0  0  0  0
 10 11  1  0  0  0  0
 10 12  1  0  0  0  0
 10 13  1  0  0  0  0
 13 14  1  0  0  0  0
 13 15  1  0  0  0  0
 13 16  1  0  0  0  0
 16 17  1  0  0  0  0
 16 18  1  0  0  0  0
 16 19  1  0  0  0  0
 19 20  1  0  0  0  0
 19 21  1  0  0  0  0
 19 22  1  0  0  0  0
  1 23  1  0  0  0  0
 23 24  1  0  0  0  0
 23 25  1  0  0  0  0
 23 26  1  0  0  0  0
M  END
> <VConfSearch Rank>
563

> <Conf_Id>
37

> <Delta U+W>
0.125

> <U+W>
21.967

> <U>
70.745

> <W>
-48.778

> <W(PB)>
-51.115

> <W(SA)>
2.337

> <Valence>
1.993

> <Coulomb>
68.323

> <VdW>
0.429

> <VdW6>
-5.973

> <VdW12>
6.403

> <Bond>
0.161

> <Angle>
0.472

> <Pdih>
1.360

> <Idih>
0.000

> <Tether>
0.000

$$$$
VeraChem MOL file


 26 25  0  0  0  0  0  0  0  0999 V2000     
   23.0704   19.1381   23.1949 N   0  3  0  0  0  0  0  0  0  0  0  0
   23.4106   18.8531   22.2633 H   0  0  0  0  0  0  0  0  0  0  0  0
   23.2233   18.3200   23.8050 H   0  0  0  0  0  0  0  0  0  0  0  0
   21.5942   19.4749   23.1320 C   0  0  0  0  0  0  0  0  0  0  0  0
   21.4748   20.3364   22.4701 H   0  0  0  0  0  0  0  0  0  0  0  0
   21.2766   19.7649   24.1362 H   0  0  0  0  0  0  0  0  0  0  0  0
   20.7247   18.3079   22.6254 C   0  0  0  0  0  0  0  0  0  0  0  0
   21.0855   17.9965   21.6361 H   0  0  0  0  0  0  0  0  0  0  0  0
   20.8439   17.4421   23.2902 H   0  0  0  0  0  0  0  0  0  0  0  0
   19.2264   18.6786   22.5180 C   0  0  0  0  0  0  0  0  0  0  0  0
   18.6981   17.8392   22.0477 H   0  0  0  0  0  0  0  0  0  0  0  0
   19.1091   19.5379   21.8433 H   0  0  0  0  0  0  0  0  0  0  0  0
   18.5789   18.9977   23.8898 C   0  0  0  0  0  0  0  0  0  0  0  0
   18.6784   18.1306   24.5573 H   0  0  0  0  0  0  0  0  0  0  0  0
   19.1230   19.8214   24.3705 H   0  0  0  0  0  0  0  0  0  0  0  0
   17.0878   19.4016   23.7882 C   0  0  0  0  0  0  0  0  0  0  0  0
   16.9832   20.2759   23.1305 H   0  0  0  0  0  0  0  0  0  0  0  0
   16.7416   19.7217   24.7810 H   0  0  0  0  0  0  0  0  0  0  0  0
   16.1720   18.2612   23.2875 C   0  0  0  0  0  0  0  0  0  0  0  0
   16.3956   17.9899   22.2485 H   0  0  0  0  0  0  0  0  0  0  0  0
   15.1191   18.5689   23.3276 H   0  0  0  0  0  0  0  0  0  0  0  0
   16.2826   17.3636   23.9096 H   0  0  0  0  0  0  0  0  0  0  0  0
   23.8544   20.3391   23.7054 C   0  0  0  0  0  0  0  0  0  0  0  0
   23.5000   20.6010   24.7047 H   0  0  0  0  0  0  0  0  0  0  0  0
   24.9156   20.0832   23.7456 H   0  0  0  0  0  0  0  0  0  0  0  0
   23.7036   21.1814   23.0265 H   0  0  0  0  0  0  0  0  0  0  0  0
  1  2  1  0  0  0  0
  1  3  1  0  0  0  0
  1  4  1  0  0  0  0
  4  5  1  0  0  0  0
  4  6  1  0  0  0  0
  4  7  1  0  0  0  0
  7  8  1  0  0  0  0
  7  9  1  0  0  0  0
  7 10  1  0  0  0  0
 10 11  1  0  0  0  0
 10 12  1  0  0  0  0
 10 13  1  0  0  0  0
 13 14  1  0  0  0  0
 13 15  1  0  0  0  0
 13 16  1  0  0  0  0
 16 17  1  0  0  0  0
 16 18  1  0  0  0  0
 16 19  1  0  0  0  0
 19 20  1  0  0  0  0
 19 21  1  0  0  0  0
 19 22  1  0  0  0  0
  1 23  1  0  0  0  0
 23 24  1  0  0  0  0
 23 25  1  0  0  0  0
 23 26  1  0  0  0  0
M  END
> <VConfSearch Rank>
564

> <Conf_Id>
137

> <Delta U+W>
1.038

> <U+W>
22.880

> <U>
71.810

> <W>
-48.930

> <W(PB)>
-51.257

> <W(SA)>
2.327

> <Valence>
2.568

> <Coulomb>
68.877

> <VdW>
0.364

> <VdW6>
-6.470

> <VdW12>
6.834

> <Bond>
0.191

> <Angle>
0.752

> <Pdih>
1.626

> <Idih>
0.000

> <Tether>
0.000

$$$$
VeraChem MOL file


 26 25  0  0  0  0  0  0  0  0999 V2000     
   20.8736   21.0223   25.3863 N   0  3  0  0  0  0  0  0  0  0  0  0
   20.6726   20.2836   26.0782 H   0  0  0  0  0  0  0  0  0  0  0  0
   20.0089   21.5819   25.3229 H   0  0  0  0  0  0  0  0  0  0  0  0
   21.1966   20.4048   24.0404 C   0  0  0  0  0  0  0  0  0  0  0  0
   22.1107   19.8162   24.1523 H   0  0  0  0  0  0  0  0  0  0  0  0
   21.3944   21.2179   23.3375 H   0  0  0  0  0  0  0  0  0  0  0  0
   20.0687   19.5107   23.4941 C   0  0  0  0  0  0  0  0  0  0  0  0
   19.8664   18.7100   24.2165 H   0  0  0  0  0  0  0  0  0  0  0  0
   19.1484   20.1022   23.3988 H   0  0  0  0  0  0  0  0  0  0  0  0
   20.4446   18.9071   22.1202 C   0  0  0  0  0  0  0  0  0  0  0  0
   21.3376   18.2752   22.2248 H   0  0  0  0  0  0  0  0  0  0  0  0
   20.7225   19.7218   21.4370 H   0  0  0  0  0  0  0  0  0  0  0  0
   19.3028   18.0882   21.4687 C   0  0  0  0  0  0  0  0  0  0  0  0
   18.4154   18.7248   21.3478 H   0  0  0  0  0  0  0  0  0  0  0  0
   19.6154   17.8008   20.4553 H   0  0  0  0  0  0  0  0  0  0  0  0
   18.9258   16.8123   22.2588 C   0  0  0  0  0  0  0  0  0  0  0  0
   18.5351   17.0806   23.2492 H   0  0  0  0  0  0  0  0  0  0  0  0
   19.8231   16.2000   22.4252 H   0  0  0  0  0  0  0  0  0  0  0  0
   17.8657   15.9736   21.5134 C   0  0  0  0  0  0  0  0  0  0  0  0
   16.9442   16.5498   21.3582 H   0  0  0  0  0  0  0  0  0  0  0  0
   17.6079   15.0748   22.0884 H   0  0  0  0  0  0  0  0  0  0  0  0
   18.2359   15.6501   20.5318 H   0  0  0  0  0  0  0  0  0  0  0  0
   22.0367   21.8875   25.8517 C   0  0  0  0  0  0  0  0  0  0  0  0
   22.2090   22.6809   25.1211 H   0  0  0  0  0  0  0  0  0  0  0  0
   21.7912   22.3261   26.8215 H   0  0  0  0  0  0  0  0  0  0  0  0
   22.9314   21.2677   25.9430 H   0  0  0  0  0  0  0  0  0  0  0  0
  1  2  1  0  0  0  0
  1  3  1  0  0  0  0
  1  4  1  0  0  0  0
  4  5  1  0  0  0  0
  4  6  1  0  0  0  0
  4  7  1  0  0  0  0
  7  8  1  0  0  0  0
  7  9  1  0  0  0  0
  7 10  1  0  0  0  0
 10 11  1  0  0  0  0
 10 12  1  0  0  0  0
 10 13  1  0  0  0  0
 13 14  1  0  0  0  0
 13 15  1  0  0  0  0
 13 16  1  0  0  0  0
 16 17  1  0  0  0  0
 16 18  1  0  0  0  0
 16 19  1  0  0  0  0
 19 20  1  0  0  0  0
 19 21  1  0  0  0  0
 19 22  1  0  0  0  0
  1 23  1  0  0  0  0
 23 24  1  0  0  0  0
 23 25  1  0  0  0  0
 23 26  1  0  0  0  0
M  END
> <VConfSearch Rank>
565

> <Conf_Id>
35

> <Delta U+W>
0.670

> <U+W>
22.512

> <U>
71.348

> <W>
-48.837

> <W(PB)>
-51.150

> <W(SA)>
2.313

> <Valence>
2.262

> <Coulomb>
68.807

> <VdW>
0.280

> <VdW6>
-5.915

> <VdW12>
6.195

> <Bond>
0.164

> <Angle>
0.622

> <Pdih>
1.475

> <Idih>
0.000

> <Tether>
0.000

$$$$
VeraChem MOL file


 26 25  0  0  0  0  0  0  0  0999 V2000     
   18.8961   16.3973   22.5947 N   0  3  0  0  0  0  0  0  0  0  0  0
   19.4162   16.3050   21.7083 H   0  0  0  0  0  0  0  0  0  0  0  0
   18.0232   16.8906   22.3508 H   0  0  0  0  0  0  0  0  0  0  0  0
   19.6979   17.2130   23.5890 C   0  0  0  0  0  0  0  0  0  0  0  0
   20.6142   16.6612   23.8136 H   0  0  0  0  0  0  0  0  0  0  0  0
   19.1108   17.2938   24.5073 H   0  0  0  0  0  0  0  0  0  0  0  0
   20.0533   18.6204   23.0761 C   0  0  0  0  0  0  0  0  0  0  0  0
   20.6289   18.5345   22.1450 H   0  0  0  0  0  0  0  0  0  0  0  0
   19.1269   19.1573   22.8365 H   0  0  0  0  0  0  0  0  0  0  0  0
   20.8722   19.4109   24.1238 C   0  0  0  0  0  0  0  0  0  0  0  0
   21.7521   18.8179   24.4098 H   0  0  0  0  0  0  0  0  0  0  0  0
   20.2774   19.5397   25.0388 H   0  0  0  0  0  0  0  0  0  0  0  0
   21.3549   20.7935   23.6196 C   0  0  0  0  0  0  0  0  0  0  0  0
   22.0203   21.2277   24.3787 H   0  0  0  0  0  0  0  0  0  0  0  0
   21.9646   20.6635   22.7147 H   0  0  0  0  0  0  0  0  0  0  0  0
   20.2030   21.7864   23.3344 C   0  0  0  0  0  0  0  0  0  0  0  0
   19.5626   21.8773   24.2229 H   0  0  0  0  0  0  0  0  0  0  0  0
   19.5685   21.4087   22.5217 H   0  0  0  0  0  0  0  0  0  0  0  0
   20.7372   23.1813   22.9445 C   0  0  0  0  0  0  0  0  0  0  0  0
   21.3446   23.6118   23.7513 H   0  0  0  0  0  0  0  0  0  0  0  0
   19.9078   23.8717   22.7430 H   0  0  0  0  0  0  0  0  0  0  0  0
   21.3579   23.1277   22.0406 H   0  0  0  0  0  0  0  0  0  0  0  0
   18.5886   15.0253   23.1787 C   0  0  0  0  0  0  0  0  0  0  0  0
   18.0100   15.1473   24.0970 H   0  0  0  0  0  0  0  0  0  0  0  0
   18.0112   14.4483   22.4529 H   0  0  0  0  0  0  0  0  0  0  0  0
   19.5263   14.5098   23.3976 H   0  0  0  0  0  0  0  0  0  0  0  0
  1  2  1  0  0  0  0
  1  3  1  0  0  0  0
  1  4  1  0  0  0  0
  4  5  1  0  0  0  0
  4  6  1  0  0  0  0
  4  7  1  0  0  0  0
  7  8  1  0  0  0  0
  7  9  1  0  0  0  0
  7 10  1  0  0  0  0
 10 11  1  0  0  0  0
 10 12  1  0  0  0  0
 10 13  1  0  0  0  0
 13 14  1  0  0  0  0
 13 15  1  0  0  0  0
 13 16  1  0  0  0  0
 16 17  1  0  0  0  0
 16 18  1  0  0  0  0
 16 19  1  0  0  0  0
 19 20  1  0  0  0  0
 19 21  1  0  0  0  0
 19 22  1  0  0  0  0
  1 23  1  0  0  0  0
 23 24  1  0  0  0  0
 23 25  1  0  0  0  0
 23 26  1  0  0  0  0
M  END
> <VConfSearch Rank>
566

> <Conf_Id>
36

> <Delta U+W>
0.662

> <U+W>
22.504

> <U>
71.348

> <W>
-48.844

> <W(PB)>
-51.157

> <W(SA)>
2.313

> <Valence>
2.262

> <Coulomb>
68.807

> <VdW>
0.280

> <VdW6>
-5.916

> <VdW12>
6.195

> <Bond>
0.164

> <Angle>
0.622

> <Pdih>
1.475

> <Idih>
0.000

> <Tether>
0.000

$$$$
VeraChem MOL file


 26 25  0  0  0  0  0  0  0  0999 V2000     
   20.6918   20.6733   25.8072 N   0  3  0  0  0  0  0  0  0  0  0  0
   21.5874   21.0826   25.4986 H   0  0  0  0  0  0  0  0  0  0  0  0
   20.9159   20.1311   26.6561 H   0  0  0  0  0  0  0  0  0  0  0  0
   20.1372   19.7587   24.7337 C   0  0  0  0  0  0  0  0  0  0  0  0
   19.9197   20.3707   23.8551 H   0  0  0  0  0  0  0  0  0  0  0  0
   19.1981   19.3391   25.1029 H   0  0  0  0  0  0  0  0  0  0  0  0
   21.0990   18.6178   24.3495 C   0  0  0  0  0  0  0  0  0  0  0  0
   22.0433   19.0394   23.9801 H   0  0  0  0  0  0  0  0  0  0  0  0
   21.3443   18.0372   25.2487 H   0  0  0  0  0  0  0  0  0  0  0  0
   20.5028   17.6666   23.2851 C   0  0  0  0  0  0  0  0  0  0  0  0
   19.5723   17.2250   23.6684 H   0  0  0  0  0  0  0  0  0  0  0  0
   21.2004   16.8322   23.1282 H   0  0  0  0  0  0  0  0  0  0  0  0
   20.2306   18.3640   21.9303 C   0  0  0  0  0  0  0  0  0  0  0  0
   19.4962   19.1696   22.0633 H   0  0  0  0  0  0  0  0  0  0  0  0
   21.1552   18.8329   21.5662 H   0  0  0  0  0  0  0  0  0  0  0  0
   19.7058   17.3714   20.8689 C   0  0  0  0  0  0  0  0  0  0  0  0
   18.7810   16.8985   21.2283 H   0  0  0  0  0  0  0  0  0  0  0  0
   20.4372   16.5644   20.7210 H   0  0  0  0  0  0  0  0  0  0  0  0
   19.4331   18.0682   19.5187 C   0  0  0  0  0  0  0  0  0  0  0  0
   18.6785   18.8582   19.6272 H   0  0  0  0  0  0  0  0  0  0  0  0
   19.0619   17.3476   18.7785 H   0  0  0  0  0  0  0  0  0  0  0  0
   20.3482   18.5225   19.1168 H   0  0  0  0  0  0  0  0  0  0  0  0
   19.6845   21.7699   26.1243 C   0  0  0  0  0  0  0  0  0  0  0  0
   18.7576   21.3144   26.4798 H   0  0  0  0  0  0  0  0  0  0  0  0
   20.0960   22.4212   26.8988 H   0  0  0  0  0  0  0  0  0  0  0  0
   19.4887   22.3503   25.2201 H   0  0  0  0  0  0  0  0  0  0  0  0
  1  2  1  0  0  0  0
  1  3  1  0  0  0  0
  1  4  1  0  0  0  0
  4  5  1  0  0  0  0
  4  6  1  0  0  0  0
  4  7  1  0  0  0  0
  7  8  1  0  0  0  0
  7  9  1  0  0  0  0
  7 10  1  0  0  0  0
 10 11  1  0  0  0  0
 10 12  1  0  0  0  0
 10 13  1  0  0  0  0
 13 14  1  0  0  0  0
 13 15  1  0  0  0  0
 13 16  1  0  0  0  0
 16 17  1  0  0  0  0
 16 18  1  0  0  0  0
 16 19  1  0  0  0  0
 19 20  1  0  0  0  0
 19 21  1  0  0  0  0
 19 22  1  0  0  0  0
  1 23  1  0  0  0  0
 23 24  1  0  0  0  0
 23 25  1  0  0  0  0
 23 26  1  0  0  0  0
M  END
> <VConfSearch Rank>
567

> <Conf_Id>
46

> <Delta U+W>
0.496

> <U+W>
22.338

> <U>
71.138

> <W>
-48.799

> <W(PB)>
-51.136

> <W(SA)>
2.337

> <Valence>
2.016

> <Coulomb>
68.932

> <VdW>
0.190

> <VdW6>
-5.902

> <VdW12>
6.092

> <Bond>
0.149

> <Angle>
0.477

> <Pdih>
1.390

> <Idih>
0.000

> <Tether>
0.000

$$$$
VeraChem MOL file


 26 25  0  0  0  0  0  0  0  0999 V2000     
   21.4724   21.5811   24.0611 N   0  3  0  0  0  0  0  0  0  0  0  0
   21.1981   22.4585   23.5922 H   0  0  0  0  0  0  0  0  0  0  0  0
   22.3741   21.3134   23.6368 H   0  0  0  0  0  0  0  0  0  0  0  0
   20.4350   20.5060   23.8070 C   0  0  0  0  0  0  0  0  0  0  0  0
   19.4960   20.8320   24.2612 H   0  0  0  0  0  0  0  0  0  0  0  0
   20.7666   19.5972   24.3148 H   0  0  0  0  0  0  0  0  0  0  0  0
   20.2132   20.2157   22.3101 C   0  0  0  0  0  0  0  0  0  0  0  0
   19.9232   21.1458   21.8033 H   0  0  0  0  0  0  0  0  0  0  0  0
   21.1572   19.8898   21.8532 H   0  0  0  0  0  0  0  0  0  0  0  0
   19.1209   19.1483   22.0638 C   0  0  0  0  0  0  0  0  0  0  0  0
   18.9530   19.0594   20.9815 H   0  0  0  0  0  0  0  0  0  0  0  0
   18.1708   19.4895   22.4981 H   0  0  0  0  0  0  0  0  0  0  0  0
   19.4882   17.7584   22.6376 C   0  0  0  0  0  0  0  0  0  0  0  0
   20.4548   17.4352   22.2268 H   0  0  0  0  0  0  0  0  0  0  0  0
   19.6108   17.8222   23.7271 H   0  0  0  0  0  0  0  0  0  0  0  0
   18.4115   16.6996   22.3108 C   0  0  0  0  0  0  0  0  0  0  0  0
   18.2862   16.6209   21.2217 H   0  0  0  0  0  0  0  0  0  0  0  0
   17.4419   17.0183   22.7188 H   0  0  0  0  0  0  0  0  0  0  0  0
   18.7780   15.3144   22.8849 C   0  0  0  0  0  0  0  0  0  0  0  0
   19.7277   14.9533   22.4692 H   0  0  0  0  0  0  0  0  0  0  0  0
   18.0023   14.5765   22.6423 H   0  0  0  0  0  0  0  0  0  0  0  0
   18.8759   15.3529   23.9777 H   0  0  0  0  0  0  0  0  0  0  0  0
   21.6318   21.8032   25.5588 C   0  0  0  0  0  0  0  0  0  0  0  0
   22.3813   22.5796   25.7280 H   0  0  0  0  0  0  0  0  0  0  0  0
   20.6740   22.1173   25.9793 H   0  0  0  0  0  0  0  0  0  0  0  0
   21.9542   20.8710   26.0279 H   0  0  0  0  0  0  0  0  0  0  0  0
  1  2  1  0  0  0  0
  1  3  1  0  0  0  0
  1  4  1  0  0  0  0
  4  5  1  0  0  0  0
  4  6  1  0  0  0  0
  4  7  1  0  0  0  0
  7  8  1  0  0  0  0
  7  9  1  0  0  0  0
  7 10  1  0  0  0  0
 10 11  1  0  0  0  0
 10 12  1  0  0  0  0
 10 13  1  0  0  0  0
 13 14  1  0  0  0  0
 13 15  1  0  0  0  0
 13 16  1  0  0  0  0
 16 17  1  0  0  0  0
 16 18  1  0  0  0  0
 16 19  1  0  0  0  0
 19 20  1  0  0  0  0
 19 21  1  0  0  0  0
 19 22  1  0  0  0  0
  1 23  1  0  0  0  0
 23 24  1  0  0  0  0
 23 25  1  0  0  0  0
 23 26  1  0  0  0  0
M  END
> <VConfSearch Rank>
568

> <Conf_Id>
45

> <Delta U+W>
0.471

> <U+W>
22.313

> <U>
71.138

> <W>
-48.825

> <W(PB)>
-51.169

> <W(SA)>
2.344

> <Valence>
2.016

> <Coulomb>
68.932

> <VdW>
0.190

> <VdW6>
-5.902

> <VdW12>
6.092

> <Bond>
0.149

> <Angle>
0.477

> <Pdih>
1.390

> <Idih>
0.000

> <Tether>
0.000

$$$$
VeraChem MOL file


 26 25  0  0  0  0  0  0  0  0999 V2000     
   22.6400   19.3606   23.6327 N   0  3  0  0  0  0  0  0  0  0  0  0
   22.3988   19.7468   22.7076 H   0  0  0  0  0  0  0  0  0  0  0  0
   22.6965   18.3389   23.4999 H   0  0  0  0  0  0  0  0  0  0  0  0
   21.5542   19.6972   24.6365 C   0  0  0  0  0  0  0  0  0  0  0  0
   21.5187   20.7843   24.7430 H   0  0  0  0  0  0  0  0  0  0  0  0
   21.8497   19.2697   25.5980 H   0  0  0  0  0  0  0  0  0  0  0  0
   20.1595   19.1682   24.2486 C   0  0  0  0  0  0  0  0  0  0  0  0
   20.2057   18.0767   24.1460 H   0  0  0  0  0  0  0  0  0  0  0  0
   19.4669   19.3780   25.0745 H   0  0  0  0  0  0  0  0  0  0  0  0
   19.6187   19.8138   22.9481 C   0  0  0  0  0  0  0  0  0  0  0  0
   20.2539   19.5367   22.0962 H   0  0  0  0  0  0  0  0  0  0  0  0
   19.6828   20.9071   23.0394 H   0  0  0  0  0  0  0  0  0  0  0  0
   18.1506   19.4333   22.6349 C   0  0  0  0  0  0  0  0  0  0  0  0
   17.5057   19.7300   23.4736 H   0  0  0  0  0  0  0  0  0  0  0  0
   17.8162   20.0195   21.7677 H   0  0  0  0  0  0  0  0  0  0  0  0
   17.9526   17.9290   22.3314 C   0  0  0  0  0  0  0  0  0  0  0  0
   18.2092   17.3270   23.2132 H   0  0  0  0  0  0  0  0  0  0  0  0
   18.6329   17.6200   21.5255 H   0  0  0  0  0  0  0  0  0  0  0  0
   16.4977   17.6180   21.9194 C   0  0  0  0  0  0  0  0  0  0  0  0
   15.7949   17.8886   22.7182 H   0  0  0  0  0  0  0  0  0  0  0  0
   16.3743   16.5474   21.7108 H   0  0  0  0  0  0  0  0  0  0  0  0
   16.2161   18.1717   21.0143 H   0  0  0  0  0  0  0  0  0  0  0  0
   23.9762   19.9126   24.1096 C   0  0  0  0  0  0  0  0  0  0  0  0
   24.2252   19.4662   25.0748 H   0  0  0  0  0  0  0  0  0  0  0  0
   24.7483   19.6639   23.3780 H   0  0  0  0  0  0  0  0  0  0  0  0
   23.9007   20.9974   24.2119 H   0  0  0  0  0  0  0  0  0  0  0  0
  1  2  1  0  0  0  0
  1  3  1  0  0  0  0
  1  4  1  0  0  0  0
  4  5  1  0  0  0  0
  4  6  1  0  0  0  0
  4  7  1  0  0  0  0
  7  8  1  0  0  0  0
  7  9  1  0  0  0  0
  7 10  1  0  0  0  0
 10 11  1  0  0  0  0
 10 12  1  0  0  0  0
 10 13  1  0  0  0  0
 13 14  1  0  0  0  0
 13 15  1  0  0  0  0
 13 16  1  0  0  0  0
 16 17  1  0  0  0  0
 16 18  1  0  0  0  0
 16 19  1  0  0  0  0
 19 20  1  0  0  0  0
 19 21  1  0  0  0  0
 19 22  1  0  0  0  0
  1 23  1  0  0  0  0
 23 24  1  0  0  0  0
 23 25  1  0  0  0  0
 23 26  1  0  0  0  0
M  END
> <VConfSearch Rank>
569

> <Conf_Id>
143

> <Delta U+W>
0.915

> <U+W>
22.757

> <U>
71.994

> <W>
-49.237

> <W(PB)>
-51.537

> <W(SA)>
2.300

> <Valence>
2.376

> <Coulomb>
69.315

> <VdW>
0.303

> <VdW6>
-6.508

> <VdW12>
6.810

> <Bond>
0.182

> <Angle>
0.660

> <Pdih>
1.534

> <Idih>
0.000

> <Tether>
0.000

$$$$
VeraChem MOL file


 26 25  0  0  0  0  0  0  0  0999 V2000     
   21.1834   20.5256   21.5066 N   0  3  0  0  0  0  0  0  0  0  0  0
   21.3441   21.1047   22.3443 H   0  0  0  0  0  0  0  0  0  0  0  0
   20.2837   20.8469   21.1169 H   0  0  0  0  0  0  0  0  0  0  0  0
   21.0914   19.0620   21.8936 C   0  0  0  0  0  0  0  0  0  0  0  0
   22.0559   18.7609   22.3101 H   0  0  0  0  0  0  0  0  0  0  0  0
   20.9224   18.4907   20.9773 H   0  0  0  0  0  0  0  0  0  0  0  0
   19.9694   18.7488   22.9033 C   0  0  0  0  0  0  0  0  0  0  0  0
   19.0050   19.0796   22.4955 H   0  0  0  0  0  0  0  0  0  0  0  0
   19.9135   17.6590   23.0136 H   0  0  0  0  0  0  0  0  0  0  0  0
   20.2138   19.3944   24.2891 C   0  0  0  0  0  0  0  0  0  0  0  0
   20.3752   20.4734   24.1672 H   0  0  0  0  0  0  0  0  0  0  0  0
   21.1425   18.9935   24.7184 H   0  0  0  0  0  0  0  0  0  0  0  0
   19.0536   19.1981   25.2996 C   0  0  0  0  0  0  0  0  0  0  0  0
   19.3242   19.7333   26.2204 H   0  0  0  0  0  0  0  0  0  0  0  0
   18.1433   19.6899   24.9298 H   0  0  0  0  0  0  0  0  0  0  0  0
   18.7532   17.7227   25.6707 C   0  0  0  0  0  0  0  0  0  0  0  0
   18.4635   17.6805   26.7301 H   0  0  0  0  0  0  0  0  0  0  0  0
   19.6634   17.1131   25.5830 H   0  0  0  0  0  0  0  0  0  0  0  0
   17.6066   17.1013   24.8390 C   0  0  0  0  0  0  0  0  0  0  0  0
   17.8328   17.0891   23.7672 H   0  0  0  0  0  0  0  0  0  0  0  0
   16.6728   17.6609   24.9801 H   0  0  0  0  0  0  0  0  0  0  0  0
   17.4234   16.0652   25.1517 H   0  0  0  0  0  0  0  0  0  0  0  0
   22.3053   20.7252   20.4971 C   0  0  0  0  0  0  0  0  0  0  0  0
   22.0975   20.1278   19.6066 H   0  0  0  0  0  0  0  0  0  0  0  0
   22.3607   21.7823   20.2274 H   0  0  0  0  0  0  0  0  0  0  0  0
   23.2505   20.4082   20.9432 H   0  0  0  0  0  0  0  0  0  0  0  0
  1  2  1  0  0  0  0
  1  3  1  0  0  0  0
  1  4  1  0  0  0  0
  4  5  1  0  0  0  0
  4  6  1  0  0  0  0
  4  7  1  0  0  0  0
  7  8  1  0  0  0  0
  7  9  1  0  0  0  0
  7 10  1  0  0  0  0
 10 11  1  0  0  0  0
 10 12  1  0  0  0  0
 10 13  1  0  0  0  0
 13 14  1  0  0  0  0
 13 15  1  0  0  0  0
 13 16  1  0  0  0  0
 16 17  1  0  0  0  0
 16 18  1  0  0  0  0
 16 19  1  0  0  0  0
 19 20  1  0  0  0  0
 19 21  1  0  0  0  0
 19 22  1  0  0  0  0
  1 23  1  0  0  0  0
 23 24  1  0  0  0  0
 23 25  1  0  0  0  0
 23 26  1  0  0  0  0
M  END
> <VConfSearch Rank>
570

> <Conf_Id>
76

> <Delta U+W>
3.468

> <U+W>
25.310

> <U>
74.594

> <W>
-49.283

> <W(PB)>
-51.537

> <W(SA)>
2.253

> <Valence>
4.886

> <Coulomb>
69.332

> <VdW>
0.376

> <VdW6>
-7.329

> <VdW12>
7.705

> <Bond>
0.232

> <Angle>
1.251

> <Pdih>
3.403

> <Idih>
0.000

> <Tether>
0.000

$$$$
VeraChem MOL file


 26 25  0  0  0  0  0  0  0  0999 V2000     
   21.0898   18.0680   25.7317 N   0  3  0  0  0  0  0  0  0  0  0  0
   21.5771   18.9751   25.7988 H   0  0  0  0  0  0  0  0  0  0  0  0
   21.8028   17.3964   25.4071 H   0  0  0  0  0  0  0  0  0  0  0  0
   19.9580   18.1552   24.7275 C   0  0  0  0  0  0  0  0  0  0  0  0
   19.2310   18.8794   25.1037 H   0  0  0  0  0  0  0  0  0  0  0  0
   19.4755   17.1756   24.6804 H   0  0  0  0  0  0  0  0  0  0  0  0
   20.4228   18.5717   23.3203 C   0  0  0  0  0  0  0  0  0  0  0  0
   20.9277   19.5423   23.3806 H   0  0  0  0  0  0  0  0  0  0  0  0
   21.1652   17.8496   22.9553 H   0  0  0  0  0  0  0  0  0  0  0  0
   19.2344   18.6357   22.3309 C   0  0  0  0  0  0  0  0  0  0  0  0
   18.4550   19.3106   22.7110 H   0  0  0  0  0  0  0  0  0  0  0  0
   18.7751   17.6383   22.2848 H   0  0  0  0  0  0  0  0  0  0  0  0
   19.6461   19.0530   20.8946 C   0  0  0  0  0  0  0  0  0  0  0  0
   20.6736   18.7272   20.6820 H   0  0  0  0  0  0  0  0  0  0  0  0
   19.0104   18.5063   20.1844 H   0  0  0  0  0  0  0  0  0  0  0  0
   19.4922   20.5649   20.5882 C   0  0  0  0  0  0  0  0  0  0  0  0
   18.4393   20.8587   20.7019 H   0  0  0  0  0  0  0  0  0  0  0  0
   19.7415   20.7329   19.5311 H   0  0  0  0  0  0  0  0  0  0  0  0
   20.3771   21.4853   21.4572 C   0  0  0  0  0  0  0  0  0  0  0  0
   21.4296   21.1760   21.4182 H   0  0  0  0  0  0  0  0  0  0  0  0
   20.0489   21.4818   22.5038 H   0  0  0  0  0  0  0  0  0  0  0  0
   20.3187   22.5216   21.1001 H   0  0  0  0  0  0  0  0  0  0  0  0
   20.5450   17.6528   27.0913 C   0  0  0  0  0  0  0  0  0  0  0  0
   19.8179   18.3948   27.4287 H   0  0  0  0  0  0  0  0  0  0  0  0
   20.0635   16.6765   27.0024 H   0  0  0  0  0  0  0  0  0  0  0  0
   21.3699   17.5937   27.8049 H   0  0  0  0  0  0  0  0  0  0  0  0
  1  2  1  0  0  0  0
  1  3  1  0  0  0  0
  1  4  1  0  0  0  0
  4  5  1  0  0  0  0
  4  6  1  0  0  0  0
  4  7  1  0  0  0  0
  7  8  1  0  0  0  0
  7  9  1  0  0  0  0
  7 10  1  0  0  0  0
 10 11  1  0  0  0  0
 10 12  1  0  0  0  0
 10 13  1  0  0  0  0
 13 14  1  0  0  0  0
 13 15  1  0  0  0  0
 13 16  1  0  0  0  0
 16 17  1  0  0  0  0
 16 18  1  0  0  0  0
 16 19  1  0  0  0  0
 19 20  1  0  0  0  0
 19 21  1  0  0  0  0
 19 22  1  0  0  0  0
  1 23  1  0  0  0  0
 23 24  1  0  0  0  0
 23 25  1  0  0  0  0
 23 26  1  0  0  0  0
M  END
> <VConfSearch Rank>
571

> <Conf_Id>
123

> <Delta U+W>
3.101

> <U+W>
24.943

> <U>
74.070

> <W>
-49.127

> <W(PB)>
-51.421

> <W(SA)>
2.295

> <Valence>
4.690

> <Coulomb>
69.115

> <VdW>
0.266

> <VdW6>
-6.809

> <VdW12>
7.075

> <Bond>
0.212

> <Angle>
1.133

> <Pdih>
3.345

> <Idih>
0.000

> <Tether>
0.000

$$$$
VeraChem MOL file


 26 25  0  0  0  0  0  0  0  0999 V2000     
   18.7006   16.8798   23.1465 N   0  3  0  0  0  0  0  0  0  0  0  0
   18.5634   16.7721   22.1295 H   0  0  0  0  0  0  0  0  0  0  0  0
   18.0117   17.5865   23.4451 H   0  0  0  0  0  0  0  0  0  0  0  0
   20.1069   17.3694   23.4341 C   0  0  0  0  0  0  0  0  0  0  0  0
   20.8002   16.5918   23.1035 H   0  0  0  0  0  0  0  0  0  0  0  0
   20.2104   17.4809   24.5164 H   0  0  0  0  0  0  0  0  0  0  0  0
   20.4621   18.6989   22.7398 C   0  0  0  0  0  0  0  0  0  0  0  0
   21.5231   18.9056   22.9191 H   0  0  0  0  0  0  0  0  0  0  0  0
   20.3510   18.5838   21.6534 H   0  0  0  0  0  0  0  0  0  0  0  0
   19.5931   19.8828   23.2361 C   0  0  0  0  0  0  0  0  0  0  0  0
   19.6221   19.9452   24.3328 H   0  0  0  0  0  0  0  0  0  0  0  0
   18.5465   19.6838   22.9700 H   0  0  0  0  0  0  0  0  0  0  0  0
   19.9982   21.2456   22.6157 C   0  0  0  0  0  0  0  0  0  0  0  0
   20.4263   21.0974   21.6147 H   0  0  0  0  0  0  0  0  0  0  0  0
   19.0846   21.8366   22.4613 H   0  0  0  0  0  0  0  0  0  0  0  0
   20.9597   22.0944   23.4867 C   0  0  0  0  0  0  0  0  0  0  0  0
   20.4795   22.3244   24.4482 H   0  0  0  0  0  0  0  0  0  0  0  0
   21.1196   23.0609   22.9886 H   0  0  0  0  0  0  0  0  0  0  0  0
   22.3334   21.4375   23.7448 C   0  0  0  0  0  0  0  0  0  0  0  0
   22.8149   21.1424   22.8036 H   0  0  0  0  0  0  0  0  0  0  0  0
   22.2379   20.5504   24.3829 H   0  0  0  0  0  0  0  0  0  0  0  0
   23.0033   22.1392   24.2585 H   0  0  0  0  0  0  0  0  0  0  0  0
   18.4549   15.5590   23.8624 C   0  0  0  0  0  0  0  0  0  0  0  0
   18.5747   15.7059   24.9381 H   0  0  0  0  0  0  0  0  0  0  0  0
   17.4395   15.2184   23.6473 H   0  0  0  0  0  0  0  0  0  0  0  0
   19.1752   14.8188   23.5074 H   0  0  0  0  0  0  0  0  0  0  0  0
  1  2  1  0  0  0  0
  1  3  1  0  0  0  0
  1  4  1  0  0  0  0
  4  5  1  0  0  0  0
  4  6  1  0  0  0  0
  4  7  1  0  0  0  0
  7  8  1  0  0  0  0
  7  9  1  0  0  0  0
  7 10  1  0  0  0  0
 10 11  1  0  0  0  0
 10 12  1  0  0  0  0
 10 13  1  0  0  0  0
 13 14  1  0  0  0  0
 13 15  1  0  0  0  0
 13 16  1  0  0  0  0
 16 17  1  0  0  0  0
 16 18  1  0  0  0  0
 16 19  1  0  0  0  0
 19 20  1  0  0  0  0
 19 21  1  0  0  0  0
 19 22  1  0  0  0  0
  1 23  1  0  0  0  0
 23 24  1  0  0  0  0
 23 25  1  0  0  0  0
 23 26  1  0  0  0  0
M  END
> <VConfSearch Rank>
572

> <Conf_Id>
111

> <Delta U+W>
3.383

> <U+W>
25.225

> <U>
74.516

> <W>
-49.292

> <W(PB)>
-51.558

> <W(SA)>
2.266

> <Valence>
4.842

> <Coulomb>
69.333

> <VdW>
0.342

> <VdW6>
-7.369

> <VdW12>
7.711

> <Bond>
0.232

> <Angle>
1.153

> <Pdih>
3.457

> <Idih>
0.000

> <Tether>
0.000

$$$$
VeraChem MOL file


 26 25  0  0  0  0  0  0  0  0999 V2000     
   18.6978   19.0672   21.2824 N   0  3  0  0  0  0  0  0  0  0  0  0
   17.8135   19.5964   21.3325 H   0  0  0  0  0  0  0  0  0  0  0  0
   18.6399   18.3594   22.0299 H   0  0  0  0  0  0  0  0  0  0  0  0
   19.8732   19.9911   21.5344 C   0  0  0  0  0  0  0  0  0  0  0  0
   19.8919   20.7302   20.7294 H   0  0  0  0  0  0  0  0  0  0  0  0
   20.7880   19.3974   21.4700 H   0  0  0  0  0  0  0  0  0  0  0  0
   19.8162   20.7172   22.8945 C   0  0  0  0  0  0  0  0  0  0  0  0
   20.6773   21.3947   22.9677 H   0  0  0  0  0  0  0  0  0  0  0  0
   18.9229   21.3551   22.9229 H   0  0  0  0  0  0  0  0  0  0  0  0
   19.8070   19.7693   24.1207 C   0  0  0  0  0  0  0  0  0  0  0  0
   18.9035   19.1455   24.1052 H   0  0  0  0  0  0  0  0  0  0  0  0
   19.7359   20.3861   25.0260 H   0  0  0  0  0  0  0  0  0  0  0  0
   21.0653   18.8680   24.2052 C   0  0  0  0  0  0  0  0  0  0  0  0
   21.1507   18.2676   23.2900 H   0  0  0  0  0  0  0  0  0  0  0  0
   21.9671   19.4942   24.2489 H   0  0  0  0  0  0  0  0  0  0  0  0
   21.0502   17.9004   25.4137 C   0  0  0  0  0  0  0  0  0  0  0  0
   21.9130   17.2244   25.3336 H   0  0  0  0  0  0  0  0  0  0  0  0
   20.1562   17.2628   25.3690 H   0  0  0  0  0  0  0  0  0  0  0  0
   21.1087   18.6194   26.7809 C   0  0  0  0  0  0  0  0  0  0  0  0
   20.2041   19.2116   26.9655 H   0  0  0  0  0  0  0  0  0  0  0  0
   21.9767   19.2890   26.8385 H   0  0  0  0  0  0  0  0  0  0  0  0
   21.1949   17.8885   27.5954 H   0  0  0  0  0  0  0  0  0  0  0  0
   18.8458   18.3983   19.9230 C   0  0  0  0  0  0  0  0  0  0  0  0
   17.9939   17.7356   19.7552 H   0  0  0  0  0  0  0  0  0  0  0  0
   18.8745   19.1659   19.1465 H   0  0  0  0  0  0  0  0  0  0  0  0
   19.7721   17.8199   19.9062 H   0  0  0  0  0  0  0  0  0  0  0  0
  1  2  1  0  0  0  0
  1  3  1  0  0  0  0
  1  4  1  0  0  0  0
  4  5  1  0  0  0  0
  4  6  1  0  0  0  0
  4  7  1  0  0  0  0
  7  8  1  0  0  0  0
  7  9  1  0  0  0  0
  7 10  1  0  0  0  0
 10 11  1  0  0  0  0
 10 12  1  0  0  0  0
 10 13  1  0  0  0  0
 13 14  1  0  0  0  0
 13 15  1  0  0  0  0
 13 16  1  0  0  0  0
 16 17  1  0  0  0  0
 16 18  1  0  0  0  0
 16 19  1  0  0  0  0
 19 20  1  0  0  0  0
 19 21  1  0  0  0  0
 19 22  1  0  0  0  0
  1 23  1  0  0  0  0
 23 24  1  0  0  0  0
 23 25  1  0  0  0  0
 23 26  1  0  0  0  0
M  END
> <VConfSearch Rank>
573

> <Conf_Id>
126

> <Delta U+W>
1.519

> <U+W>
23.361

> <U>
72.579

> <W>
-49.218

> <W(PB)>
-51.496

> <W(SA)>
2.279

> <Valence>
2.678

> <Coulomb>
69.622

> <VdW>
0.279

> <VdW6>
-7.328

> <VdW12>
7.608

> <Bond>
0.212

> <Angle>
0.911

> <Pdih>
1.555

> <Idih>
0.000

> <Tether>
0.000

$$$$
VeraChem MOL file


 26 25  0  0  0  0  0  0  0  0999 V2000     
   19.4795   18.2899   25.4525 N   0  3  0  0  0  0  0  0  0  0  0  0
   20.3562   18.0542   24.9636 H   0  0  0  0  0  0  0  0  0  0  0  0
   18.9221   17.4217   25.4563 H   0  0  0  0  0  0  0  0  0  0  0  0
   18.7429   19.3793   24.6981 C   0  0  0  0  0  0  0  0  0  0  0  0
   19.3608   20.2801   24.7188 H   0  0  0  0  0  0  0  0  0  0  0  0
   17.8180   19.5905   25.2408 H   0  0  0  0  0  0  0  0  0  0  0  0
   18.4066   19.0099   23.2383 C   0  0  0  0  0  0  0  0  0  0  0  0
   17.7382   18.1388   23.2342 H   0  0  0  0  0  0  0  0  0  0  0  0
   17.8364   19.8341   22.7896 H   0  0  0  0  0  0  0  0  0  0  0  0
   19.6459   18.7079   22.3579 C   0  0  0  0  0  0  0  0  0  0  0  0
   19.2915   18.4305   21.3567 H   0  0  0  0  0  0  0  0  0  0  0  0
   20.1771   17.8294   22.7475 H   0  0  0  0  0  0  0  0  0  0  0  0
   20.6235   19.9059   22.2481 C   0  0  0  0  0  0  0  0  0  0  0  0
   20.0975   20.7760   21.8317 H   0  0  0  0  0  0  0  0  0  0  0  0
   20.9604   20.1997   23.2509 H   0  0  0  0  0  0  0  0  0  0  0  0
   21.8766   19.6020   21.3912 C   0  0  0  0  0  0  0  0  0  0  0  0
   22.4139   18.7397   21.8101 H   0  0  0  0  0  0  0  0  0  0  0  0
   22.5655   20.4556   21.4608 H   0  0  0  0  0  0  0  0  0  0  0  0
   21.5575   19.3425   19.9011 C   0  0  0  0  0  0  0  0  0  0  0  0
   20.9910   20.1767   19.4672 H   0  0  0  0  0  0  0  0  0  0  0  0
   20.9743   18.4233   19.7666 H   0  0  0  0  0  0  0  0  0  0  0  0
   22.4845   19.2310   19.3239 H   0  0  0  0  0  0  0  0  0  0  0  0
   19.7676   18.7479   26.8754 C   0  0  0  0  0  0  0  0  0  0  0  0
   20.3843   19.6488   26.8448 H   0  0  0  0  0  0  0  0  0  0  0  0
   18.8237   18.9624   27.3814 H   0  0  0  0  0  0  0  0  0  0  0  0
   20.2988   17.9548   27.4064 H   0  0  0  0  0  0  0  0  0  0  0  0
  1  2  1  0  0  0  0
  1  3  1  0  0  0  0
  1  4  1  0  0  0  0
  4  5  1  0  0  0  0
  4  6  1  0  0  0  0
  4  7  1  0  0  0  0
  7  8  1  0  0  0  0
  7  9  1  0  0  0  0
  7 10  1  0  0  0  0
 10 11  1  0  0  0  0
 10 12  1  0  0  0  0
 10 13  1  0  0  0  0
 13 14  1  0  0  0  0
 13 15  1  0  0  0  0
 13 16  1  0  0  0  0
 16 17  1  0  0  0  0
 16 18  1  0  0  0  0
 16 19  1  0  0  0  0
 19 20  1  0  0  0  0
 19 21  1  0  0  0  0
 19 22  1  0  0  0  0
  1 23  1  0  0  0  0
 23 24  1  0  0  0  0
 23 25  1  0  0  0  0
 23 26  1  0  0  0  0
M  END
> <VConfSearch Rank>
574

> <Conf_Id>
134

> <Delta U+W>
1.464

> <U+W>
23.306

> <U>
72.579

> <W>
-49.273

> <W(PB)>
-51.540

> <W(SA)>
2.267

> <Valence>
2.677

> <Coulomb>
69.622

> <VdW>
0.280

> <VdW6>
-7.328

> <VdW12>
7.608

> <Bond>
0.212

> <Angle>
0.911

> <Pdih>
1.555

> <Idih>
0.000

> <Tether>
0.000

$$$$
VeraChem MOL file


 26 25  0  0  0  0  0  0  0  0999 V2000     
   22.7140   18.2666   22.6744 N   0  3  0  0  0  0  0  0  0  0  0  0
   22.9503   18.5222   23.6458 H   0  0  0  0  0  0  0  0  0  0  0  0
   23.0319   19.0602   22.0965 H   0  0  0  0  0  0  0  0  0  0  0  0
   21.2165   18.0825   22.5314 C   0  0  0  0  0  0  0  0  0  0  0  0
   20.9203   17.2410   23.1627 H   0  0  0  0  0  0  0  0  0  0  0  0
   21.0088   17.8220   21.4905 H   0  0  0  0  0  0  0  0  0  0  0  0
   20.4090   19.3331   22.9233 C   0  0  0  0  0  0  0  0  0  0  0  0
   20.6394   19.5957   23.9635 H   0  0  0  0  0  0  0  0  0  0  0  0
   20.7206   20.1801   22.2977 H   0  0  0  0  0  0  0  0  0  0  0  0
   18.8893   19.0963   22.7597 C   0  0  0  0  0  0  0  0  0  0  0  0
   18.5687   18.2749   23.4142 H   0  0  0  0  0  0  0  0  0  0  0  0
   18.6895   18.7587   21.7331 H   0  0  0  0  0  0  0  0  0  0  0  0
   18.0309   20.3584   23.0341 C   0  0  0  0  0  0  0  0  0  0  0  0
   18.2864   21.1317   22.2966 H   0  0  0  0  0  0  0  0  0  0  0  0
   16.9751   20.1117   22.8561 H   0  0  0  0  0  0  0  0  0  0  0  0
   18.1715   20.9592   24.4563 C   0  0  0  0  0  0  0  0  0  0  0  0
   17.5209   21.8420   24.5284 H   0  0  0  0  0  0  0  0  0  0  0  0
   19.1940   21.3276   24.6139 H   0  0  0  0  0  0  0  0  0  0  0  0
   17.7937   19.9701   25.5823 C   0  0  0  0  0  0  0  0  0  0  0  0
   16.7808   19.5732   25.4356 H   0  0  0  0  0  0  0  0  0  0  0  0
   17.8199   20.4707   26.5588 H   0  0  0  0  0  0  0  0  0  0  0  0
   18.4915   19.1247   25.6262 H   0  0  0  0  0  0  0  0  0  0  0  0
   23.4342   16.9882   22.2685 C   0  0  0  0  0  0  0  0  0  0  0  0
   23.1954   16.7563   21.2282 H   0  0  0  0  0  0  0  0  0  0  0  0
   24.5113   17.1343   22.3760 H   0  0  0  0  0  0  0  0  0  0  0  0
   23.1065   16.1707   22.9145 H   0  0  0  0  0  0  0  0  0  0  0  0
  1  2  1  0  0  0  0
  1  3  1  0  0  0  0
  1  4  1  0  0  0  0
  4  5  1  0  0  0  0
  4  6  1  0  0  0  0
  4  7  1  0  0  0  0
  7  8  1  0  0  0  0
  7  9  1  0  0  0  0
  7 10  1  0  0  0  0
 10 11  1  0  0  0  0
 10 12  1  0  0  0  0
 10 13  1  0  0  0  0
 13 14  1  0  0  0  0
 13 15  1  0  0  0  0
 13 16  1  0  0  0  0
 16 17  1  0  0  0  0
 16 18  1  0  0  0  0
 16 19  1  0  0  0  0
 19 20  1  0  0  0  0
 19 21  1  0  0  0  0
 19 22  1  0  0  0  0
  1 23  1  0  0  0  0
 23 24  1  0  0  0  0
 23 25  1  0  0  0  0
 23 26  1  0  0  0  0
M  END
> <VConfSearch Rank>
575

> <Conf_Id>
30

> <Delta U+W>
0.910

> <U+W>
22.752

> <U>
71.870

> <W>
-49.118

> <W(PB)>
-51.409

> <W(SA)>
2.290

> <Valence>
2.682

> <Coulomb>
68.933

> <VdW>
0.255

> <VdW6>
-6.833

> <VdW12>
7.088

> <Bond>
0.205

> <Angle>
1.003

> <Pdih>
1.473

> <Idih>
0.000

> <Tether>
0.000

$$$$
VeraChem MOL file


 26 25  0  0  0  0  0  0  0  0999 V2000     
   17.3528   19.6471   24.0865 N   0  3  0  0  0  0  0  0  0  0  0  0
   17.5112   20.3599   24.8157 H   0  0  0  0  0  0  0  0  0  0  0  0
   17.3831   18.7402   24.5778 H   0  0  0  0  0  0  0  0  0  0  0  0
   18.4498   19.7138   23.0431 C   0  0  0  0  0  0  0  0  0  0  0  0
   18.3882   20.6892   22.5539 H   0  0  0  0  0  0  0  0  0  0  0  0
   18.2500   18.9409   22.2966 H   0  0  0  0  0  0  0  0  0  0  0  0
   19.8598   19.5160   23.6284 C   0  0  0  0  0  0  0  0  0  0  0  0
   20.0507   20.2846   24.3891 H   0  0  0  0  0  0  0  0  0  0  0  0
   19.9041   18.5422   24.1324 H   0  0  0  0  0  0  0  0  0  0  0  0
   20.9428   19.5934   22.5268 C   0  0  0  0  0  0  0  0  0  0  0  0
   20.8312   20.5419   21.9831 H   0  0  0  0  0  0  0  0  0  0  0  0
   20.7761   18.8004   21.7856 H   0  0  0  0  0  0  0  0  0  0  0  0
   22.3918   19.5118   23.0734 C   0  0  0  0  0  0  0  0  0  0  0  0
   23.0916   19.6151   22.2327 H   0  0  0  0  0  0  0  0  0  0  0  0
   22.5769   20.3765   23.7254 H   0  0  0  0  0  0  0  0  0  0  0  0
   22.7340   18.2163   23.8532 C   0  0  0  0  0  0  0  0  0  0  0  0
   22.1302   18.1528   24.7683 H   0  0  0  0  0  0  0  0  0  0  0  0
   23.7791   18.2759   24.1877 H   0  0  0  0  0  0  0  0  0  0  0  0
   22.5522   16.9289   23.0175 C   0  0  0  0  0  0  0  0  0  0  0  0
   21.4993   16.7627   22.7581 H   0  0  0  0  0  0  0  0  0  0  0  0
   22.8953   16.0523   23.5820 H   0  0  0  0  0  0  0  0  0  0  0  0
   23.1326   16.9771   22.0870 H   0  0  0  0  0  0  0  0  0  0  0  0
   15.9964   19.8514   23.4259 C   0  0  0  0  0  0  0  0  0  0  0  0
   15.2156   19.8012   24.1881 H   0  0  0  0  0  0  0  0  0  0  0  0
   15.9767   20.8302   22.9415 H   0  0  0  0  0  0  0  0  0  0  0  0
   15.8372   19.0672   22.6825 H   0  0  0  0  0  0  0  0  0  0  0  0
  1  2  1  0  0  0  0
  1  3  1  0  0  0  0
  1  4  1  0  0  0  0
  4  5  1  0  0  0  0
  4  6  1  0  0  0  0
  4  7  1  0  0  0  0
  7  8  1  0  0  0  0
  7  9  1  0  0  0  0
  7 10  1  0  0  0  0
 10 11  1  0  0  0  0
 10 12  1  0  0  0  0
 10 13  1  0  0  0  0
 13 14  1  0  0  0  0
 13 15  1  0  0  0  0
 13 16  1  0  0  0  0
 16 17  1  0  0  0  0
 16 18  1  0  0  0  0
 16 19  1  0  0  0  0
 19 20  1  0  0  0  0
 19 21  1  0  0  0  0
 19 22  1  0  0  0  0
  1 23  1  0  0  0  0
 23 24  1  0  0  0  0
 23 25  1  0  0  0  0
 23 26  1  0  0  0  0
M  END
> <VConfSearch Rank>
576

> <Conf_Id>
29

> <Delta U+W>
0.886

> <U+W>
22.729

> <U>
71.870

> <W>
-49.141

> <W(PB)>
-51.404

> <W(SA)>
2.262

> <Valence>
2.682

> <Coulomb>
68.933

> <VdW>
0.255

> <VdW6>
-6.833

> <VdW12>
7.088

> <Bond>
0.205

> <Angle>
1.003

> <Pdih>
1.473

> <Idih>
0.000

> <Tether>
0.000

$$$$
VeraChem MOL file


 26 25  0  0  0  0  0  0  0  0999 V2000     
   21.9524   17.4060   23.8607 N   0  3  0  0  0  0  0  0  0  0  0  0
   22.0352   16.5815   23.2459 H   0  0  0  0  0  0  0  0  0  0  0  0
   21.3602   17.1023   24.6492 H   0  0  0  0  0  0  0  0  0  0  0  0
   21.2890   18.5478   23.1174 C   0  0  0  0  0  0  0  0  0  0  0  0
   21.9394   18.8301   22.2857 H   0  0  0  0  0  0  0  0  0  0  0  0
   21.2184   19.3955   23.8031 H   0  0  0  0  0  0  0  0  0  0  0  0
   19.8881   18.1946   22.5828 C   0  0  0  0  0  0  0  0  0  0  0  0
   19.9649   17.3200   21.9232 H   0  0  0  0  0  0  0  0  0  0  0  0
   19.2384   17.8964   23.4155 H   0  0  0  0  0  0  0  0  0  0  0  0
   19.2384   19.3594   21.7952 C   0  0  0  0  0  0  0  0  0  0  0  0
   18.2547   19.0390   21.4266 H   0  0  0  0  0  0  0  0  0  0  0  0
   19.8395   19.5594   20.8974 H   0  0  0  0  0  0  0  0  0  0  0  0
   19.0876   20.6821   22.5944 C   0  0  0  0  0  0  0  0  0  0  0  0
   20.0831   21.0893   22.8174 H   0  0  0  0  0  0  0  0  0  0  0  0
   18.6024   21.4277   21.9497 H   0  0  0  0  0  0  0  0  0  0  0  0
   18.2858   20.5665   23.9159 C   0  0  0  0  0  0  0  0  0  0  0  0
   18.2567   21.5549   24.3953 H   0  0  0  0  0  0  0  0  0  0  0  0
   18.8083   19.9063   24.6210 H   0  0  0  0  0  0  0  0  0  0  0  0
   16.8364   20.0700   23.7121 C   0  0  0  0  0  0  0  0  0  0  0  0
   16.2868   20.0869   24.6621 H   0  0  0  0  0  0  0  0  0  0  0  0
   16.8128   19.0400   23.3352 H   0  0  0  0  0  0  0  0  0  0  0  0
   16.2969   20.7088   23.0008 H   0  0  0  0  0  0  0  0  0  0  0  0
   23.3237   17.8404   24.3591 C   0  0  0  0  0  0  0  0  0  0  0  0
   23.7908   17.0092   24.8922 H   0  0  0  0  0  0  0  0  0  0  0  0
   23.9425   18.1252   23.5053 H   0  0  0  0  0  0  0  0  0  0  0  0
   23.2078   18.6922   25.0329 H   0  0  0  0  0  0  0  0  0  0  0  0
  1  2  1  0  0  0  0
  1  3  1  0  0  0  0
  1  4  1  0  0  0  0
  4  5  1  0  0  0  0
  4  6  1  0  0  0  0
  4  7  1  0  0  0  0
  7  8  1  0  0  0  0
  7  9  1  0  0  0  0
  7 10  1  0  0  0  0
 10 11  1  0  0  0  0
 10 12  1  0  0  0  0
 10 13  1  0  0  0  0
 13 14  1  0  0  0  0
 13 15  1  0  0  0  0
 13 16  1  0  0  0  0
 16 17  1  0  0  0  0
 16 18  1  0  0  0  0
 16 19  1  0  0  0  0
 19 20  1  0  0  0  0
 19 21  1  0  0  0  0
 19 22  1  0  0  0  0
  1 23  1  0  0  0  0
 23 24  1  0  0  0  0
 23 25  1  0  0  0  0
 23 26  1  0  0  0  0
M  END
> <VConfSearch Rank>
577

> <Conf_Id>
82

> <Delta U+W>
1.026

> <U+W>
22.868

> <U>
72.455

> <W>
-49.586

> <W(PB)>
-51.821

> <W(SA)>
2.234

> <Valence>
2.908

> <Coulomb>
69.435

> <VdW>
0.112

> <VdW6>
-7.765

> <VdW12>
7.877

> <Bond>
0.233

> <Angle>
1.170

> <Pdih>
1.506

> <Idih>
0.000

> <Tether>
0.000

$$$$
VeraChem MOL file


 26 25  0  0  0  0  0  0  0  0999 V2000     
   19.2679   21.5127   22.6932 N   0  3  0  0  0  0  0  0  0  0  0  0
   18.5123   21.3365   23.3733 H   0  0  0  0  0  0  0  0  0  0  0  0
   18.7978   21.6139   21.7802 H   0  0  0  0  0  0  0  0  0  0  0  0
   20.2266   20.3397   22.6603 C   0  0  0  0  0  0  0  0  0  0  0  0
   20.6981   20.2670   23.6433 H   0  0  0  0  0  0  0  0  0  0  0  0
   21.0014   20.5597   21.9216 H   0  0  0  0  0  0  0  0  0  0  0  0
   19.5432   19.0037   22.3123 C   0  0  0  0  0  0  0  0  0  0  0  0
   18.7548   18.7893   23.0450 H   0  0  0  0  0  0  0  0  0  0  0  0
   19.0426   19.0985   21.3396 H   0  0  0  0  0  0  0  0  0  0  0  0
   20.5417   17.8213   22.2477 C   0  0  0  0  0  0  0  0  0  0  0  0
   21.2482   17.9981   21.4249 H   0  0  0  0  0  0  0  0  0  0  0  0
   19.9976   16.9062   21.9783 H   0  0  0  0  0  0  0  0  0  0  0  0
   21.3506   17.5796   23.5509 C   0  0  0  0  0  0  0  0  0  0  0  0
   22.0084   16.7127   23.3995 H   0  0  0  0  0  0  0  0  0  0  0  0
   22.0218   18.4310   23.7271 H   0  0  0  0  0  0  0  0  0  0  0  0
   20.4968   17.3429   24.8228 C   0  0  0  0  0  0  0  0  0  0  0  0
   19.9070   18.2392   25.0569 H   0  0  0  0  0  0  0  0  0  0  0  0
   21.1733   17.1973   25.6765 H   0  0  0  0  0  0  0  0  0  0  0  0
   19.5622   16.1167   24.7143 C   0  0  0  0  0  0  0  0  0  0  0  0
   18.7954   16.2618   23.9433 H   0  0  0  0  0  0  0  0  0  0  0  0
   19.0446   15.9420   25.6664 H   0  0  0  0  0  0  0  0  0  0  0  0
   20.1289   15.2092   24.4690 H   0  0  0  0  0  0  0  0  0  0  0  0
   20.0209   22.7868   23.0501 C   0  0  0  0  0  0  0  0  0  0  0  0
   20.7926   22.9702   22.2992 H   0  0  0  0  0  0  0  0  0  0  0  0
   19.3194   23.6238   23.0701 H   0  0  0  0  0  0  0  0  0  0  0  0
   20.4818   22.6683   24.0332 H   0  0  0  0  0  0  0  0  0  0  0  0
  1  2  1  0  0  0  0
  1  3  1  0  0  0  0
  1  4  1  0  0  0  0
  4  5  1  0  0  0  0
  4  6  1  0  0  0  0
  4  7  1  0  0  0  0
  7  8  1  0  0  0  0
  7  9  1  0  0  0  0
  7 10  1  0  0  0  0
 10 11  1  0  0  0  0
 10 12  1  0  0  0  0
 10 13  1  0  0  0  0
 13 14  1  0  0  0  0
 13 15  1  0  0  0  0
 13 16  1  0  0  0  0
 16 17  1  0  0  0  0
 16 18  1  0  0  0  0
 16 19  1  0  0  0  0
 19 20  1  0  0  0  0
 19 21  1  0  0  0  0
 19 22  1  0  0  0  0
  1 23  1  0  0  0  0
 23 24  1  0  0  0  0
 23 25  1  0  0  0  0
 23 26  1  0  0  0  0
M  END
> <VConfSearch Rank>
578

> <Conf_Id>
71

> <Delta U+W>
1.096

> <U+W>
22.938

> <U>
72.455

> <W>
-49.517

> <W(PB)>
-51.795

> <W(SA)>
2.278

> <Valence>
2.908

> <Coulomb>
69.435

> <VdW>
0.112

> <VdW6>
-7.766

> <VdW12>
7.877

> <Bond>
0.233

> <Angle>
1.170

> <Pdih>
1.506

> <Idih>
0.000

> <Tether>
0.000

$$$$
VeraChem MOL file


 26 25  0  0  0  0  0  0  0  0999 V2000     
   20.6025   20.7914   21.5751 N   0  3  0  0  0  0  0  0  0  0  0  0
   21.2405   20.0425   21.8829 H   0  0  0  0  0  0  0  0  0  0  0  0
   21.1855   21.6422   21.5314 H   0  0  0  0  0  0  0  0  0  0  0  0
   19.4951   20.9835   22.5991 C   0  0  0  0  0  0  0  0  0  0  0  0
   18.8327   21.7695   22.2279 H   0  0  0  0  0  0  0  0  0  0  0  0
   19.9603   21.3461   23.5189 H   0  0  0  0  0  0  0  0  0  0  0  0
   18.6675   19.7172   22.9163 C   0  0  0  0  0  0  0  0  0  0  0  0
   17.9092   19.9735   23.6678 H   0  0  0  0  0  0  0  0  0  0  0  0
   18.1121   19.4123   22.0200 H   0  0  0  0  0  0  0  0  0  0  0  0
   19.5087   18.5204   23.4276 C   0  0  0  0  0  0  0  0  0  0  0  0
   20.2180   18.2045   22.6510 H   0  0  0  0  0  0  0  0  0  0  0  0
   18.8311   17.6714   23.5853 H   0  0  0  0  0  0  0  0  0  0  0  0
   20.2702   18.8268   24.7425 C   0  0  0  0  0  0  0  0  0  0  0  0
   20.9263   19.6946   24.5951 H   0  0  0  0  0  0  0  0  0  0  0  0
   19.5548   19.1107   25.5267 H   0  0  0  0  0  0  0  0  0  0  0  0
   21.1397   17.6466   25.2402 C   0  0  0  0  0  0  0  0  0  0  0  0
   21.7286   17.9837   26.1047 H   0  0  0  0  0  0  0  0  0  0  0  0
   21.8663   17.3665   24.4647 H   0  0  0  0  0  0  0  0  0  0  0  0
   20.3166   16.4053   25.6543 C   0  0  0  0  0  0  0  0  0  0  0  0
   19.8070   15.9529   24.7948 H   0  0  0  0  0  0  0  0  0  0  0  0
   19.5599   16.6656   26.4058 H   0  0  0  0  0  0  0  0  0  0  0  0
   20.9709   15.6387   26.0894 H   0  0  0  0  0  0  0  0  0  0  0  0
   20.0308   20.4822   20.1964 C   0  0  0  0  0  0  0  0  0  0  0  0
   20.8519   20.3810   19.4833 H   0  0  0  0  0  0  0  0  0  0  0  0
   19.4659   19.5488   20.2411 H   0  0  0  0  0  0  0  0  0  0  0  0
   19.3740   21.2989   19.8892 H   0  0  0  0  0  0  0  0  0  0  0  0
  1  2  1  0  0  0  0
  1  3  1  0  0  0  0
  1  4  1  0  0  0  0
  4  5  1  0  0  0  0
  4  6  1  0  0  0  0
  4  7  1  0  0  0  0
  7  8  1  0  0  0  0
  7  9  1  0  0  0  0
  7 10  1  0  0  0  0
 10 11  1  0  0  0  0
 10 12  1  0  0  0  0
 10 13  1  0  0  0  0
 13 14  1  0  0  0  0
 13 15  1  0  0  0  0
 13 16  1  0  0  0  0
 16 17  1  0  0  0  0
 16 18  1  0  0  0  0
 16 19  1  0  0  0  0
 19 20  1  0  0  0  0
 19 21  1  0  0  0  0
 19 22  1  0  0  0  0
  1 23  1  0  0  0  0
 23 24  1  0  0  0  0
 23 25  1  0  0  0  0
 23 26  1  0  0  0  0
M  END
> <VConfSearch Rank>
579

> <Conf_Id>
84

> <Delta U+W>
1.456

> <U+W>
23.298

> <U>
73.042

> <W>
-49.744

> <W(PB)>
-51.966

> <W(SA)>
2.222

> <Valence>
2.938

> <Coulomb>
69.625

> <VdW>
0.478

> <VdW6>
-8.182

> <VdW12>
8.660

> <Bond>
0.253

> <Angle>
1.038

> <Pdih>
1.647

> <Idih>
0.000

> <Tether>
0.000

$$$$
VeraChem MOL file


 26 25  0  0  0  0  0  0  0  0999 V2000     
   18.8988   18.8553   21.1747 N   0  3  0  0  0  0  0  0  0  0  0  0
   18.4894   18.5791   22.0798 H   0  0  0  0  0  0  0  0  0  0  0  0
   18.9476   17.9888   20.6166 H   0  0  0  0  0  0  0  0  0  0  0  0
   20.2905   19.4184   21.3862 C   0  0  0  0  0  0  0  0  0  0  0  0
   20.1974   20.3337   21.9754 H   0  0  0  0  0  0  0  0  0  0  0  0
   20.6921   19.6858   20.4055 H   0  0  0  0  0  0  0  0  0  0  0  0
   21.2585   18.4430   22.0874 C   0  0  0  0  0  0  0  0  0  0  0  0
   21.3854   17.5499   21.4612 H   0  0  0  0  0  0  0  0  0  0  0  0
   22.2480   18.9148   22.1504 H   0  0  0  0  0  0  0  0  0  0  0  0
   20.8060   18.0146   23.5062 C   0  0  0  0  0  0  0  0  0  0  0  0
   21.5499   17.3158   23.9133 H   0  0  0  0  0  0  0  0  0  0  0  0
   19.8639   17.4535   23.4452 H   0  0  0  0  0  0  0  0  0  0  0  0
   20.6435   19.2064   24.4803 C   0  0  0  0  0  0  0  0  0  0  0  0
   21.5808   19.7784   24.5198 H   0  0  0  0  0  0  0  0  0  0  0  0
   19.8684   19.8913   24.1115 H   0  0  0  0  0  0  0  0  0  0  0  0
   20.2675   18.7373   25.9036 C   0  0  0  0  0  0  0  0  0  0  0  0
   21.0420   18.0587   26.2879 H   0  0  0  0  0  0  0  0  0  0  0  0
   19.3313   18.1626   25.8701 H   0  0  0  0  0  0  0  0  0  0  0  0
   20.1031   19.9270   26.8733 C   0  0  0  0  0  0  0  0  0  0  0  0
   21.0347   20.5022   26.9542 H   0  0  0  0  0  0  0  0  0  0  0  0
   19.8371   19.5742   27.8782 H   0  0  0  0  0  0  0  0  0  0  0  0
   19.3102   20.6064   26.5343 H   0  0  0  0  0  0  0  0  0  0  0  0
   18.0203   19.8888   20.4838 C   0  0  0  0  0  0  0  0  0  0  0  0
   18.4581   20.1424   19.5158 H   0  0  0  0  0  0  0  0  0  0  0  0
   17.0217   19.4708   20.3388 H   0  0  0  0  0  0  0  0  0  0  0  0
   17.9590   20.7830   21.1080 H   0  0  0  0  0  0  0  0  0  0  0  0
  1  2  1  0  0  0  0
  1  3  1  0  0  0  0
  1  4  1  0  0  0  0
  4  5  1  0  0  0  0
  4  6  1  0  0  0  0
  4  7  1  0  0  0  0
  7  8  1  0  0  0  0
  7  9  1  0  0  0  0
  7 10  1  0  0  0  0
 10 11  1  0  0  0  0
 10 12  1  0  0  0  0
 10 13  1  0  0  0  0
 13 14  1  0  0  0  0
 13 15  1  0  0  0  0
 13 16  1  0  0  0  0
 16 17  1  0  0  0  0
 16 18  1  0  0  0  0
 16 19  1  0  0  0  0
 19 20  1  0  0  0  0
 19 21  1  0  0  0  0
 19 22  1  0  0  0  0
  1 23  1  0  0  0  0
 23 24  1  0  0  0  0
 23 25  1  0  0  0  0
 23 26  1  0  0  0  0
M  END
> <VConfSearch Rank>
580

> <Conf_Id>
73

> <Delta U+W>
0.884

> <U+W>
22.726

> <U>
71.905

> <W>
-49.179

> <W(PB)>
-51.494

> <W(SA)>
2.315

> <Valence>
2.125

> <Coulomb>
69.686

> <VdW>
0.093

> <VdW6>
-6.766

> <VdW12>
6.859

> <Bond>
0.169

> <Angle>
0.621

> <Pdih>
1.336

> <Idih>
0.000

> <Tether>
0.000

$$$$
VeraChem MOL file


 26 25  0  0  0  0  0  0  0  0999 V2000     
   23.0817   19.9352   22.5527 N   0  3  0  0  0  0  0  0  0  0  0  0
   23.4793   18.9859   22.6282 H   0  0  0  0  0  0  0  0  0  0  0  0
   23.2828   20.3896   23.4571 H   0  0  0  0  0  0  0  0  0  0  0  0
   21.5849   19.8588   22.3273 C   0  0  0  0  0  0  0  0  0  0  0  0
   21.4153   19.3655   21.3669 H   0  0  0  0  0  0  0  0  0  0  0  0
   21.2032   20.8808   22.2616 H   0  0  0  0  0  0  0  0  0  0  0  0
   20.8399   19.0980   23.4391 C   0  0  0  0  0  0  0  0  0  0  0  0
   21.2379   18.0771   23.5127 H   0  0  0  0  0  0  0  0  0  0  0  0
   21.0265   19.5873   24.4044 H   0  0  0  0  0  0  0  0  0  0  0  0
   19.3200   19.0457   23.1674 C   0  0  0  0  0  0  0  0  0  0  0  0
   19.1378   18.5603   22.1983 H   0  0  0  0  0  0  0  0  0  0  0  0
   18.9267   20.0689   23.0888 H   0  0  0  0  0  0  0  0  0  0  0  0
   18.5611   18.2839   24.2779 C   0  0  0  0  0  0  0  0  0  0  0  0
   18.9542   17.2608   24.3565 H   0  0  0  0  0  0  0  0  0  0  0  0
   18.7431   18.7692   25.2469 H   0  0  0  0  0  0  0  0  0  0  0  0
   17.0411   18.2318   24.0059 C   0  0  0  0  0  0  0  0  0  0  0  0
   16.8535   17.7450   23.0385 H   0  0  0  0  0  0  0  0  0  0  0  0
   16.6425   19.2532   23.9289 H   0  0  0  0  0  0  0  0  0  0  0  0
   16.2866   17.4704   25.1168 C   0  0  0  0  0  0  0  0  0  0  0  0
   15.2096   17.4441   24.9060 H   0  0  0  0  0  0  0  0  0  0  0  0
   16.4270   17.9539   26.0923 H   0  0  0  0  0  0  0  0  0  0  0  0
   16.6397   16.4339   25.1950 H   0  0  0  0  0  0  0  0  0  0  0  0
   23.7391   20.7005   21.4126 C   0  0  0  0  0  0  0  0  0  0  0  0
   23.3267   21.7112   21.3736 H   0  0  0  0  0  0  0  0  0  0  0  0
   24.8163   20.7481   21.5873 H   0  0  0  0  0  0  0  0  0  0  0  0
   23.5406   20.1833   20.4713 H   0  0  0  0  0  0  0  0  0  0  0  0
  1  2  1  0  0  0  0
  1  3  1  0  0  0  0
  1  4  1  0  0  0  0
  4  5  1  0  0  0  0
  4  6  1  0  0  0  0
  4  7  1  0  0  0  0
  7  8  1  0  0  0  0
  7  9  1  0  0  0  0
  7 10  1  0  0  0  0
 10 11  1  0  0  0  0
 10 12  1  0  0  0  0
 10 13  1  0  0  0  0
 13 14  1  0  0  0  0
 13 15  1  0  0  0  0
 13 16  1  0  0  0  0
 16 17  1  0  0  0  0
 16 18  1  0  0  0  0
 16 19  1  0  0  0  0
 19 20  1  0  0  0  0
 19 21  1  0  0  0  0
 19 22  1  0  0  0  0
  1 23  1  0  0  0  0
 23 24  1  0  0  0  0
 23 25  1  0  0  0  0
 23 26  1  0  0  0  0
M  END
> <VConfSearch Rank>
581

> <Conf_Id>
11

> <Delta U+W>
0.000

> <U+W>
21.842

> <U>
70.357

> <W>
-48.515

> <W(PB)>
-50.856

> <W(SA)>
2.341

> <Valence>
1.714

> <Coulomb>
68.480

> <VdW>
0.163

> <VdW6>
-5.268

> <VdW12>
5.431

> <Bond>
0.126

> <Angle>
0.350

> <Pdih>
1.238

> <Idih>
0.000

> <Tether>
0.000

$$$$
VeraChem MOL file


 26 25  0  0  0  0  0  0  0  0999 V2000     
   17.3345   20.9047   24.2016 N   0  3  0  0  0  0  0  0  0  0  0  0
   16.5528   21.4119   23.7569 H   0  0  0  0  0  0  0  0  0  0  0  0
   17.9043   21.6371   24.6527 H   0  0  0  0  0  0  0  0  0  0  0  0
   18.1473   20.1884   23.1361 C   0  0  0  0  0  0  0  0  0  0  0  0
   18.3584   20.9141   22.3465 H   0  0  0  0  0  0  0  0  0  0  0  0
   17.5235   19.3977   22.7118 H   0  0  0  0  0  0  0  0  0  0  0  0
   19.4786   19.5935   23.6385 C   0  0  0  0  0  0  0  0  0  0  0  0
   20.0773   20.3855   24.1076 H   0  0  0  0  0  0  0  0  0  0  0  0
   19.2802   18.8393   24.4109 H   0  0  0  0  0  0  0  0  0  0  0  0
   20.2795   18.9505   22.4846 C   0  0  0  0  0  0  0  0  0  0  0  0
   20.4764   19.7052   21.7103 H   0  0  0  0  0  0  0  0  0  0  0  0
   19.6746   18.1630   22.0138 H   0  0  0  0  0  0  0  0  0  0  0  0
   21.6175   18.3513   22.9745 C   0  0  0  0  0  0  0  0  0  0  0  0
   22.2224   19.1386   23.4455 H   0  0  0  0  0  0  0  0  0  0  0  0
   21.4208   17.5964   23.7484 H   0  0  0  0  0  0  0  0  0  0  0  0
   22.4183   17.7083   21.8202 C   0  0  0  0  0  0  0  0  0  0  0  0
   22.6199   18.4602   21.0443 H   0  0  0  0  0  0  0  0  0  0  0  0
   21.8183   16.9182   21.3471 H   0  0  0  0  0  0  0  0  0  0  0  0
   23.7536   17.1110   22.3131 C   0  0  0  0  0  0  0  0  0  0  0  0
   24.3075   16.6594   21.4798 H   0  0  0  0  0  0  0  0  0  0  0  0
   23.5831   16.3306   23.0662 H   0  0  0  0  0  0  0  0  0  0  0  0
   24.3910   17.8846   22.7609 H   0  0  0  0  0  0  0  0  0  0  0  0
   16.7931   19.9244   25.2361 C   0  0  0  0  0  0  0  0  0  0  0  0
   17.6275   19.4400   25.7472 H   0  0  0  0  0  0  0  0  0  0  0  0
   16.1856   20.4701   25.9616 H   0  0  0  0  0  0  0  0  0  0  0  0
   16.1802   19.1736   24.7327 H   0  0  0  0  0  0  0  0  0  0  0  0
  1  2  1  0  0  0  0
  1  3  1  0  0  0  0
  1  4  1  0  0  0  0
  4  5  1  0  0  0  0
  4  6  1  0  0  0  0
  4  7  1  0  0  0  0
  7  8  1  0  0  0  0
  7  9  1  0  0  0  0
  7 10  1  0  0  0  0
 10 11  1  0  0  0  0
 10 12  1  0  0  0  0
 10 13  1  0  0  0  0
 13 14  1  0  0  0  0
 13 15  1  0  0  0  0
 13 16  1  0  0  0  0
 16 17  1  0  0  0  0
 16 18  1  0  0  0  0
 16 19  1  0  0  0  0
 19 20  1  0  0  0  0
 19 21  1  0  0  0  0
 19 22  1  0  0  0  0
  1 23  1  0  0  0  0
 23 24  1  0  0  0  0
 23 25  1  0  0  0  0
 23 26  1  0  0  0  0
M  END
> <VConfSearch Rank>
582

> <Conf_Id>
102

> <Delta U+W>
0.121

> <U+W>
21.963

> <U>
70.745

> <W>
-48.782

> <W(PB)>
-51.111

> <W(SA)>
2.329

> <Valence>
1.993

> <Coulomb>
68.323

> <VdW>
0.429

> <VdW6>
-5.973

> <VdW12>
6.402

> <Bond>
0.161

> <Angle>
0.472

> <Pdih>
1.360

> <Idih>
0.000

> <Tether>
0.000

$$$$
VeraChem MOL file


 26 25  0  0  0  0  0  0  0  0999 V2000     
   21.6251   19.2103   26.2852 N   0  3  0  0  0  0  0  0  0  0  0  0
   20.7544   19.4123   26.8005 H   0  0  0  0  0  0  0  0  0  0  0  0
   22.3502   19.7743   26.7565 H   0  0  0  0  0  0  0  0  0  0  0  0
   21.4950   19.6562   24.8384 C   0  0  0  0  0  0  0  0  0  0  0  0
   22.4192   19.3899   24.3196 H   0  0  0  0  0  0  0  0  0  0  0  0
   21.4097   20.7459   24.8412 H   0  0  0  0  0  0  0  0  0  0  0  0
   20.2840   19.0611   24.0914 C   0  0  0  0  0  0  0  0  0  0  0  0
   20.3719   17.9676   24.0534 H   0  0  0  0  0  0  0  0  0  0  0  0
   19.3648   19.2913   24.6463 H   0  0  0  0  0  0  0  0  0  0  0  0
   20.1779   19.6195   22.6550 C   0  0  0  0  0  0  0  0  0  0  0  0
   21.1021   19.3927   22.1052 H   0  0  0  0  0  0  0  0  0  0  0  0
   20.0917   20.7144   22.6931 H   0  0  0  0  0  0  0  0  0  0  0  0
   18.9669   19.0317   21.8952 C   0  0  0  0  0  0  0  0  0  0  0  0
   19.0532   17.9369   21.8567 H   0  0  0  0  0  0  0  0  0  0  0  0
   18.0428   19.2581   22.4450 H   0  0  0  0  0  0  0  0  0  0  0  0
   18.8611   19.5904   20.4586 C   0  0  0  0  0  0  0  0  0  0  0  0
   19.7825   19.3645   19.9036 H   0  0  0  0  0  0  0  0  0  0  0  0
   18.7719   20.6854   20.4917 H   0  0  0  0  0  0  0  0  0  0  0  0
   17.6509   19.0011   19.7029 C   0  0  0  0  0  0  0  0  0  0  0  0
   17.7288   17.9089   19.6232 H   0  0  0  0  0  0  0  0  0  0  0  0
   17.5926   19.4095   18.6857 H   0  0  0  0  0  0  0  0  0  0  0  0
   16.7103   19.2401   20.2161 H   0  0  0  0  0  0  0  0  0  0  0  0
   21.9794   17.7303   26.3779 C   0  0  0  0  0  0  0  0  0  0  0  0
   22.9130   17.5506   25.8403 H   0  0  0  0  0  0  0  0  0  0  0  0
   22.1006   17.4572   27.4285 H   0  0  0  0  0  0  0  0  0  0  0  0
   21.1765   17.1375   25.9352 H   0  0  0  0  0  0  0  0  0  0  0  0
  1  2  1  0  0  0  0
  1  3  1  0  0  0  0
  1  4  1  0  0  0  0
  4  5  1  0  0  0  0
  4  6  1  0  0  0  0
  4  7  1  0  0  0  0
  7  8  1  0  0  0  0
  7  9  1  0  0  0  0
  7 10  1  0  0  0  0
 10 11  1  0  0  0  0
 10 12  1  0  0  0  0
 10 13  1  0  0  0  0
 13 14  1  0  0  0  0
 13 15  1  0  0  0  0
 13 16  1  0  0  0  0
 16 17  1  0  0  0  0
 16 18  1  0  0  0  0
 16 19  1  0  0  0  0
 19 20  1  0  0  0  0
 19 21  1  0  0  0  0
 19 22  1  0  0  0  0
  1 23  1  0  0  0  0
 23 24  1  0  0  0  0
 23 25  1  0  0  0  0
 23 26  1  0  0  0  0
M  END
> <VConfSearch Rank>
583

> <Conf_Id>
37

> <Delta U+W>
0.125

> <U+W>
21.967

> <U>
70.745

> <W>
-48.778

> <W(PB)>
-51.115

> <W(SA)>
2.337

> <Valence>
1.993

> <Coulomb>
68.323

> <VdW>
0.429

> <VdW6>
-5.973

> <VdW12>
6.403

> <Bond>
0.161

> <Angle>
0.472

> <Pdih>
1.360

> <Idih>
0.000

> <Tether>
0.000

$$$$
VeraChem MOL file


 26 25  0  0  0  0  0  0  0  0999 V2000     
   18.6044   21.1221   25.0392 N   0  3  0  0  0  0  0  0  0  0  0  0
   17.5844   20.9668   25.0179 H   0  0  0  0  0  0  0  0  0  0  0  0
   18.7696   21.9430   24.4362 H   0  0  0  0  0  0  0  0  0  0  0  0
   19.3293   19.9120   24.4854 C   0  0  0  0  0  0  0  0  0  0  0  0
   19.1204   19.0654   25.1442 H   0  0  0  0  0  0  0  0  0  0  0  0
   20.4009   20.1213   24.5218 H   0  0  0  0  0  0  0  0  0  0  0  0
   18.9141   19.5611   23.0435 C   0  0  0  0  0  0  0  0  0  0  0  0
   17.8282   19.3998   23.0133 H   0  0  0  0  0  0  0  0  0  0  0  0
   19.1240   20.4112   22.3808 H   0  0  0  0  0  0  0  0  0  0  0  0
   19.6233   18.2954   22.5061 C   0  0  0  0  0  0  0  0  0  0  0  0
   19.1931   18.0508   21.5263 H   0  0  0  0  0  0  0  0  0  0  0  0
   19.4022   17.4441   23.1647 H   0  0  0  0  0  0  0  0  0  0  0  0
   21.1579   18.4687   22.3718 C   0  0  0  0  0  0  0  0  0  0  0  0
   21.3785   19.3073   21.6969 H   0  0  0  0  0  0  0  0  0  0  0  0
   21.5843   18.7371   23.3473 H   0  0  0  0  0  0  0  0  0  0  0  0
   21.8797   17.1960   21.8657 C   0  0  0  0  0  0  0  0  0  0  0  0
   21.6719   16.3562   22.5434 H   0  0  0  0  0  0  0  0  0  0  0  0
   22.9647   17.3654   21.9112 H   0  0  0  0  0  0  0  0  0  0  0  0
   21.4991   16.8042   20.4196 C   0  0  0  0  0  0  0  0  0  0  0  0
   20.4472   16.5019   20.3461 H   0  0  0  0  0  0  0  0  0  0  0  0
   22.1089   15.9577   20.0782 H   0  0  0  0  0  0  0  0  0  0  0  0
   21.6669   17.6390   19.7267 H   0  0  0  0  0  0  0  0  0  0  0  0
   19.0726   21.4006   26.4608 C   0  0  0  0  0  0  0  0  0  0  0  0
   20.1474   21.5945   26.4535 H   0  0  0  0  0  0  0  0  0  0  0  0
   18.5428   22.2739   26.8478 H   0  0  0  0  0  0  0  0  0  0  0  0
   18.8575   20.5316   27.0865 H   0  0  0  0  0  0  0  0  0  0  0  0
  1  2  1  0  0  0  0
  1  3  1  0  0  0  0
  1  4  1  0  0  0  0
  4  5  1  0  0  0  0
  4  6  1  0  0  0  0
  4  7  1  0  0  0  0
  7  8  1  0  0  0  0
  7  9  1  0  0  0  0
  7 10  1  0  0  0  0
 10 11  1  0  0  0  0
 10 12  1  0  0  0  0
 10 13  1  0  0  0  0
 13 14  1  0  0  0  0
 13 15  1  0  0  0  0
 13 16  1  0  0  0  0
 16 17  1  0  0  0  0
 16 18  1  0  0  0  0
 16 19  1  0  0  0  0
 19 20  1  0  0  0  0
 19 21  1  0  0  0  0
 19 22  1  0  0  0  0
  1 23  1  0  0  0  0
 23 24  1  0  0  0  0
 23 25  1  0  0  0  0
 23 26  1  0  0  0  0
M  END
> <VConfSearch Rank>
584

> <Conf_Id>
137

> <Delta U+W>
1.038

> <U+W>
22.880

> <U>
71.810

> <W>
-48.930

> <W(PB)>
-51.257

> <W(SA)>
2.327

> <Valence>
2.568

> <Coulomb>
68.877

> <VdW>
0.364

> <VdW6>
-6.470

> <VdW12>
6.834

> <Bond>
0.191

> <Angle>
0.752

> <Pdih>
1.626

> <Idih>
0.000

> <Tether>
0.000

$$$$
VeraChem MOL file


 26 25  0  0  0  0  0  0  0  0999 V2000     
   21.3060   21.3997   24.6667 N   0  3  0  0  0  0  0  0  0  0  0  0
   20.4244   21.9032   24.4819 H   0  0  0  0  0  0  0  0  0  0  0  0
   21.9330   21.6483   23.8857 H   0  0  0  0  0  0  0  0  0  0  0  0
   21.0605   19.9043   24.6846 C   0  0  0  0  0  0  0  0  0  0  0  0
   20.3881   19.6848   25.5178 H   0  0  0  0  0  0  0  0  0  0  0  0
   22.0167   19.4101   24.8744 H   0  0  0  0  0  0  0  0  0  0  0  0
   20.4529   19.3710   23.3745 C   0  0  0  0  0  0  0  0  0  0  0  0
   19.5036   19.8877   23.1851 H   0  0  0  0  0  0  0  0  0  0  0  0
   21.1241   19.6081   22.5383 H   0  0  0  0  0  0  0  0  0  0  0  0
   20.2240   17.8425   23.4416 C   0  0  0  0  0  0  0  0  0  0  0  0
   19.5140   17.6091   24.2472 H   0  0  0  0  0  0  0  0  0  0  0  0
   21.1693   17.3521   23.7130 H   0  0  0  0  0  0  0  0  0  0  0  0
   19.7187   17.2316   22.1111 C   0  0  0  0  0  0  0  0  0  0  0  0
   20.4373   17.4497   21.3090 H   0  0  0  0  0  0  0  0  0  0  0  0
   19.6979   16.1380   22.2162 H   0  0  0  0  0  0  0  0  0  0  0  0
   18.3109   17.7232   21.6981 C   0  0  0  0  0  0  0  0  0  0  0  0
   18.3264   18.8050   21.5103 H   0  0  0  0  0  0  0  0  0  0  0  0
   17.6020   17.5525   22.5204 H   0  0  0  0  0  0  0  0  0  0  0  0
   17.8056   17.0028   20.4298 C   0  0  0  0  0  0  0  0  0  0  0  0
   18.4789   17.1794   19.5809 H   0  0  0  0  0  0  0  0  0  0  0  0
   16.8080   17.3651   20.1495 H   0  0  0  0  0  0  0  0  0  0  0  0
   17.7365   15.9191   20.5916 H   0  0  0  0  0  0  0  0  0  0  0  0
   21.9054   21.8422   25.9943 C   0  0  0  0  0  0  0  0  0  0  0  0
   22.8526   21.3216   26.1521 H   0  0  0  0  0  0  0  0  0  0  0  0
   22.0773   22.9206   25.9681 H   0  0  0  0  0  0  0  0  0  0  0  0
   21.2105   21.5990   26.8011 H   0  0  0  0  0  0  0  0  0  0  0  0
  1  2  1  0  0  0  0
  1  3  1  0  0  0  0
  1  4  1  0  0  0  0
  4  5  1  0  0  0  0
  4  6  1  0  0  0  0
  4  7  1  0  0  0  0
  7  8  1  0  0  0  0
  7  9  1  0  0  0  0
  7 10  1  0  0  0  0
 10 11  1  0  0  0  0
 10 12  1  0  0  0  0
 10 13  1  0  0  0  0
 13 14  1  0  0  0  0
 13 15  1  0  0  0  0
 13 16  1  0  0  0  0
 16 17  1  0  0  0  0
 16 18  1  0  0  0  0
 16 19  1  0  0  0  0
 19 20  1  0  0  0  0
 19 21  1  0  0  0  0
 19 22  1  0  0  0  0
  1 23  1  0  0  0  0
 23 24  1  0  0  0  0
 23 25  1  0  0  0  0
 23 26  1  0  0  0  0
M  END
> <VConfSearch Rank>
585

> <Conf_Id>
35

> <Delta U+W>
0.670

> <U+W>
22.512

> <U>
71.348

> <W>
-48.837

> <W(PB)>
-51.150

> <W(SA)>
2.313

> <Valence>
2.262

> <Coulomb>
68.807

> <VdW>
0.280

> <VdW6>
-5.915

> <VdW12>
6.195

> <Bond>
0.164

> <Angle>
0.622

> <Pdih>
1.475

> <Idih>
0.000

> <Tether>
0.000

$$$$
VeraChem MOL file


 26 25  0  0  0  0  0  0  0  0999 V2000     
   20.8211   20.3479   25.8500 N   0  3  0  0  0  0  0  0  0  0  0  0
   21.7938   20.5353   25.5607 H   0  0  0  0  0  0  0  0  0  0  0  0
   20.8343   19.4015   26.2610 H   0  0  0  0  0  0  0  0  0  0  0  0
   19.9016   20.3826   24.6457 C   0  0  0  0  0  0  0  0  0  0  0  0
   19.9226   21.3960   24.2371 H   0  0  0  0  0  0  0  0  0  0  0  0
   18.8868   20.1721   24.9925 H   0  0  0  0  0  0  0  0  0  0  0  0
   20.2941   19.3743   23.5505 C   0  0  0  0  0  0  0  0  0  0  0  0
   21.3199   19.5794   23.2168 H   0  0  0  0  0  0  0  0  0  0  0  0
   20.2877   18.3635   23.9773 H   0  0  0  0  0  0  0  0  0  0  0  0
   19.3288   19.4499   22.3440 C   0  0  0  0  0  0  0  0  0  0  0  0
   19.2882   20.4877   21.9845 H   0  0  0  0  0  0  0  0  0  0  0  0
   18.3098   19.1966   22.6680 H   0  0  0  0  0  0  0  0  0  0  0  0
   19.7398   18.5370   21.1623 C   0  0  0  0  0  0  0  0  0  0  0  0
   19.0710   18.7426   20.3150 H   0  0  0  0  0  0  0  0  0  0  0  0
   20.7518   18.8020   20.8264 H   0  0  0  0  0  0  0  0  0  0  0  0
   19.6792   17.0271   21.4949 C   0  0  0  0  0  0  0  0  0  0  0  0
   18.6821   16.7714   21.8801 H   0  0  0  0  0  0  0  0  0  0  0  0
   20.3989   16.7837   22.2877 H   0  0  0  0  0  0  0  0  0  0  0  0
   19.9868   16.1585   20.2564 C   0  0  0  0  0  0  0  0  0  0  0  0
   19.2612   16.3434   19.4536 H   0  0  0  0  0  0  0  0  0  0  0  0
   19.9425   15.0914   20.5105 H   0  0  0  0  0  0  0  0  0  0  0  0
   20.9906   16.3701   19.8654 H   0  0  0  0  0  0  0  0  0  0  0  0
   20.3640   21.3712   26.8804 C   0  0  0  0  0  0  0  0  0  0  0  0
   19.3456   21.1334   27.1955 H   0  0  0  0  0  0  0  0  0  0  0  0
   21.0344   21.3360   27.7420 H   0  0  0  0  0  0  0  0  0  0  0  0
   20.3900   22.3674   26.4333 H   0  0  0  0  0  0  0  0  0  0  0  0
  1  2  1  0  0  0  0
  1  3  1  0  0  0  0
  1  4  1  0  0  0  0
  4  5  1  0  0  0  0
  4  6  1  0  0  0  0
  4  7  1  0  0  0  0
  7  8  1  0  0  0  0
  7  9  1  0  0  0  0
  7 10  1  0  0  0  0
 10 11  1  0  0  0  0
 10 12  1  0  0  0  0
 10 13  1  0  0  0  0
 13 14  1  0  0  0  0
 13 15  1  0  0  0  0
 13 16  1  0  0  0  0
 16 17  1  0  0  0  0
 16 18  1  0  0  0  0
 16 19  1  0  0  0  0
 19 20  1  0  0  0  0
 19 21  1  0  0  0  0
 19 22  1  0  0  0  0
  1 23  1  0  0  0  0
 23 24  1  0  0  0  0
 23 25  1  0  0  0  0
 23 26  1  0  0  0  0
M  END
> <VConfSearch Rank>
586

> <Conf_Id>
36

> <Delta U+W>
0.662

> <U+W>
22.504

> <U>
71.348

> <W>
-48.844

> <W(PB)>
-51.157

> <W(SA)>
2.313

> <Valence>
2.262

> <Coulomb>
68.807

> <VdW>
0.280

> <VdW6>
-5.916

> <VdW12>
6.195

> <Bond>
0.164

> <Angle>
0.622

> <Pdih>
1.475

> <Idih>
0.000

> <Tether>
0.000

$$$$
VeraChem MOL file


 26 25  0  0  0  0  0  0  0  0999 V2000     
   22.7323   19.9621   24.5737 N   0  3  0  0  0  0  0  0  0  0  0  0
   22.9339   20.7410   23.9275 H   0  0  0  0  0  0  0  0  0  0  0  0
   23.5336   19.3179   24.4855 H   0  0  0  0  0  0  0  0  0  0  0  0
   21.4514   19.2624   24.1658 C   0  0  0  0  0  0  0  0  0  0  0  0
   20.6335   19.9793   24.2690 H   0  0  0  0  0  0  0  0  0  0  0  0
   21.2805   18.4408   24.8660 H   0  0  0  0  0  0  0  0  0  0  0  0
   21.4881   18.7165   22.7254 C   0  0  0  0  0  0  0  0  0  0  0  0
   21.6616   19.5418   22.0219 H   0  0  0  0  0  0  0  0  0  0  0  0
   22.3403   18.0315   22.6228 H   0  0  0  0  0  0  0  0  0  0  0  0
   20.1918   17.9666   22.3374 C   0  0  0  0  0  0  0  0  0  0  0  0
   20.0355   17.1247   23.0262 H   0  0  0  0  0  0  0  0  0  0  0  0
   20.3237   17.5292   21.3379 H   0  0  0  0  0  0  0  0  0  0  0  0
   18.9403   18.8773   22.3332 C   0  0  0  0  0  0  0  0  0  0  0  0
   18.7673   19.2828   23.3390 H   0  0  0  0  0  0  0  0  0  0  0  0
   19.1129   19.7357   21.6692 H   0  0  0  0  0  0  0  0  0  0  0  0
   17.6778   18.1160   21.8707 C   0  0  0  0  0  0  0  0  0  0  0  0
   17.5008   17.2555   22.5311 H   0  0  0  0  0  0  0  0  0  0  0  0
   17.8363   17.7127   20.8607 H   0  0  0  0  0  0  0  0  0  0  0  0
   16.4300   19.0248   21.8685 C   0  0  0  0  0  0  0  0  0  0  0  0
   16.2245   19.4161   22.8734 H   0  0  0  0  0  0  0  0  0  0  0  0
   15.5447   18.4668   21.5370 H   0  0  0  0  0  0  0  0  0  0  0  0
   16.5638   19.8776   21.1903 H   0  0  0  0  0  0  0  0  0  0  0  0
   22.6115   20.4716   26.0032 C   0  0  0  0  0  0  0  0  0  0  0  0
   22.4314   19.6268   26.6716 H   0  0  0  0  0  0  0  0  0  0  0  0
   23.5403   20.9730   26.2844 H   0  0  0  0  0  0  0  0  0  0  0  0
   21.7790   21.1760   26.0643 H   0  0  0  0  0  0  0  0  0  0  0  0
  1  2  1  0  0  0  0
  1  3  1  0  0  0  0
  1  4  1  0  0  0  0
  4  5  1  0  0  0  0
  4  6  1  0  0  0  0
  4  7  1  0  0  0  0
  7  8  1  0  0  0  0
  7  9  1  0  0  0  0
  7 10  1  0  0  0  0
 10 11  1  0  0  0  0
 10 12  1  0  0  0  0
 10 13  1  0  0  0  0
 13 14  1  0  0  0  0
 13 15  1  0  0  0  0
 13 16  1  0  0  0  0
 16 17  1  0  0  0  0
 16 18  1  0  0  0  0
 16 19  1  0  0  0  0
 19 20  1  0  0  0  0
 19 21  1  0  0  0  0
 19 22  1  0  0  0  0
  1 23  1  0  0  0  0
 23 24  1  0  0  0  0
 23 25  1  0  0  0  0
 23 26  1  0  0  0  0
M  END
> <VConfSearch Rank>
587

> <Conf_Id>
46

> <Delta U+W>
0.496

> <U+W>
22.338

> <U>
71.138

> <W>
-48.799

> <W(PB)>
-51.136

> <W(SA)>
2.337

> <Valence>
2.016

> <Coulomb>
68.932

> <VdW>
0.190

> <VdW6>
-5.902

> <VdW12>
6.092

> <Bond>
0.149

> <Angle>
0.477

> <Pdih>
1.390

> <Idih>
0.000

> <Tether>
0.000

$$$$
VeraChem MOL file


 26 25  0  0  0  0  0  0  0  0999 V2000     
   22.0420   20.5589   21.6601 N   0  3  0  0  0  0  0  0  0  0  0  0
   22.1322   21.5730   21.8285 H   0  0  0  0  0  0  0  0  0  0  0  0
   21.5666   20.4734   20.7483 H   0  0  0  0  0  0  0  0  0  0  0  0
   21.2034   19.9205   22.7490 C   0  0  0  0  0  0  0  0  0  0  0  0
   21.7349   20.0419   23.6962 H   0  0  0  0  0  0  0  0  0  0  0  0
   21.1298   18.8528   22.5292 H   0  0  0  0  0  0  0  0  0  0  0  0
   19.7920   20.5277   22.8654 C   0  0  0  0  0  0  0  0  0  0  0  0
   19.8796   21.6079   23.0424 H   0  0  0  0  0  0  0  0  0  0  0  0
   19.2585   20.4074   21.9131 H   0  0  0  0  0  0  0  0  0  0  0  0
   18.9627   19.8973   24.0091 C   0  0  0  0  0  0  0  0  0  0  0  0
   18.0093   20.4373   24.0918 H   0  0  0  0  0  0  0  0  0  0  0  0
   19.4858   20.0434   24.9644 H   0  0  0  0  0  0  0  0  0  0  0  0
   18.6774   18.3911   23.7948 C   0  0  0  0  0  0  0  0  0  0  0  0
   18.1844   18.2452   22.8237 H   0  0  0  0  0  0  0  0  0  0  0  0
   19.6216   17.8312   23.7595 H   0  0  0  0  0  0  0  0  0  0  0  0
   17.7865   17.8104   24.9156 C   0  0  0  0  0  0  0  0  0  0  0  0
   16.8343   18.3579   24.9546 H   0  0  0  0  0  0  0  0  0  0  0  0
   18.2746   17.9544   25.8897 H   0  0  0  0  0  0  0  0  0  0  0  0
   17.5040   16.3079   24.7017 C   0  0  0  0  0  0  0  0  0  0  0  0
   16.9853   16.1352   23.7497 H   0  0  0  0  0  0  0  0  0  0  0  0
   16.8701   15.9142   25.5068 H   0  0  0  0  0  0  0  0  0  0  0  0
   18.4361   15.7280   24.6932 H   0  0  0  0  0  0  0  0  0  0  0  0
   23.4143   19.9015   21.6108 C   0  0  0  0  0  0  0  0  0  0  0  0
   24.0080   20.3705   20.8229 H   0  0  0  0  0  0  0  0  0  0  0  0
   23.9107   20.0336   22.5747 H   0  0  0  0  0  0  0  0  0  0  0  0
   23.2951   18.8368   21.3986 H   0  0  0  0  0  0  0  0  0  0  0  0
  1  2  1  0  0  0  0
  1  3  1  0  0  0  0
  1  4  1  0  0  0  0
  4  5  1  0  0  0  0
  4  6  1  0  0  0  0
  4  7  1  0  0  0  0
  7  8  1  0  0  0  0
  7  9  1  0  0  0  0
  7 10  1  0  0  0  0
 10 11  1  0  0  0  0
 10 12  1  0  0  0  0
 10 13  1  0  0  0  0
 13 14  1  0  0  0  0
 13 15  1  0  0  0  0
 13 16  1  0  0  0  0
 16 17  1  0  0  0  0
 16 18  1  0  0  0  0
 16 19  1  0  0  0  0
 19 20  1  0  0  0  0
 19 21  1  0  0  0  0
 19 22  1  0  0  0  0
  1 23  1  0  0  0  0
 23 24  1  0  0  0  0
 23 25  1  0  0  0  0
 23 26  1  0  0  0  0
M  END
> <VConfSearch Rank>
588

> <Conf_Id>
45

> <Delta U+W>
0.471

> <U+W>
22.313

> <U>
71.138

> <W>
-48.825

> <W(PB)>
-51.169

> <W(SA)>
2.344

> <Valence>
2.016

> <Coulomb>
68.932

> <VdW>
0.190

> <VdW6>
-5.902

> <VdW12>
6.092

> <Bond>
0.149

> <Angle>
0.477

> <Pdih>
1.390

> <Idih>
0.000

> <Tether>
0.000

$$$$
VeraChem MOL file


 26 25  0  0  0  0  0  0  0  0999 V2000     
   18.2882   17.2131   23.4068 N   0  3  0  0  0  0  0  0  0  0  0  0
   17.8271   18.1102   23.6212 H   0  0  0  0  0  0  0  0  0  0  0  0
   18.7496   16.9229   24.2829 H   0  0  0  0  0  0  0  0  0  0  0  0
   19.3203   17.4068   22.3128 C   0  0  0  0  0  0  0  0  0  0  0  0
   18.7964   17.7218   21.4068 H   0  0  0  0  0  0  0  0  0  0  0  0
   19.7825   16.4354   22.1194 H   0  0  0  0  0  0  0  0  0  0  0  0
   20.4155   18.4336   22.6621 C   0  0  0  0  0  0  0  0  0  0  0  0
   20.9361   18.1074   23.5713 H   0  0  0  0  0  0  0  0  0  0  0  0
   21.1605   18.4341   21.8555 H   0  0  0  0  0  0  0  0  0  0  0  0
   19.8526   19.8658   22.8424 C   0  0  0  0  0  0  0  0  0  0  0  0
   19.1731   19.8990   23.7045 H   0  0  0  0  0  0  0  0  0  0  0  0
   19.2483   20.1249   21.9618 H   0  0  0  0  0  0  0  0  0  0  0  0
   20.9514   20.9429   23.0172 C   0  0  0  0  0  0  0  0  0  0  0  0
   21.6210   20.9314   22.1460 H   0  0  0  0  0  0  0  0  0  0  0  0
   20.4722   21.9317   23.0235 H   0  0  0  0  0  0  0  0  0  0  0  0
   21.7795   20.7773   24.3138 C   0  0  0  0  0  0  0  0  0  0  0  0
   22.3287   19.8266   24.2945 H   0  0  0  0  0  0  0  0  0  0  0  0
   21.1066   20.7392   25.1818 H   0  0  0  0  0  0  0  0  0  0  0  0
   22.7862   21.9330   24.4979 C   0  0  0  0  0  0  0  0  0  0  0  0
   23.4927   21.9784   23.6589 H   0  0  0  0  0  0  0  0  0  0  0  0
   23.3665   21.7984   25.4199 H   0  0  0  0  0  0  0  0  0  0  0  0
   22.2705   22.9000   24.5632 H   0  0  0  0  0  0  0  0  0  0  0  0
   17.2618   16.1756   22.9736 C   0  0  0  0  0  0  0  0  0  0  0  0
   17.7687   15.2271   22.7828 H   0  0  0  0  0  0  0  0  0  0  0  0
   16.5250   16.0465   23.7696 H   0  0  0  0  0  0  0  0  0  0  0  0
   16.7654   16.5197   22.0636 H   0  0  0  0  0  0  0  0  0  0  0  0
  1  2  1  0  0  0  0
  1  3  1  0  0  0  0
  1  4  1  0  0  0  0
  4  5  1  0  0  0  0
  4  6  1  0  0  0  0
  4  7  1  0  0  0  0
  7  8  1  0  0  0  0
  7  9  1  0  0  0  0
  7 10  1  0  0  0  0
 10 11  1  0  0  0  0
 10 12  1  0  0  0  0
 10 13  1  0  0  0  0
 13 14  1  0  0  0  0
 13 15  1  0  0  0  0
 13 16  1  0  0  0  0
 16 17  1  0  0  0  0
 16 18  1  0  0  0  0
 16 19  1  0  0  0  0
 19 20  1  0  0  0  0
 19 21  1  0  0  0  0
 19 22  1  0  0  0  0
  1 23  1  0  0  0  0
 23 24  1  0  0  0  0
 23 25  1  0  0  0  0
 23 26  1  0  0  0  0
M  END
> <VConfSearch Rank>
589

> <Conf_Id>
143

> <Delta U+W>
0.915

> <U+W>
22.757

> <U>
71.994

> <W>
-49.237

> <W(PB)>
-51.537

> <W(SA)>
2.300

> <Valence>
2.376

> <Coulomb>
69.315

> <VdW>
0.303

> <VdW6>
-6.508

> <VdW12>
6.810

> <Bond>
0.182

> <Angle>
0.660

> <Pdih>
1.534

> <Idih>
0.000

> <Tether>
0.000

$$$$
VeraChem MOL file


 26 25  0  0  0  0  0  0  0  0999 V2000     
   21.1489   21.0849   22.1389 N   0  3  0  0  0  0  0  0  0  0  0  0
   21.2363   20.3759   21.3955 H   0  0  0  0  0  0  0  0  0  0  0  0
   22.0072   20.9989   22.7051 H   0  0  0  0  0  0  0  0  0  0  0  0
   19.9293   20.7975   22.9934 C   0  0  0  0  0  0  0  0  0  0  0  0
   19.0434   20.8879   22.3598 H   0  0  0  0  0  0  0  0  0  0  0  0
   19.8785   21.5720   23.7631 H   0  0  0  0  0  0  0  0  0  0  0  0
   19.9468   19.4108   23.6667 C   0  0  0  0  0  0  0  0  0  0  0  0
   20.8528   19.3109   24.2789 H   0  0  0  0  0  0  0  0  0  0  0  0
   19.0909   19.3604   24.3508 H   0  0  0  0  0  0  0  0  0  0  0  0
   19.8594   18.2491   22.6469 C   0  0  0  0  0  0  0  0  0  0  0  0
   20.6545   18.3587   21.8979 H   0  0  0  0  0  0  0  0  0  0  0  0
   18.9106   18.3186   22.0970 H   0  0  0  0  0  0  0  0  0  0  0  0
   19.9880   16.8366   23.2742 C   0  0  0  0  0  0  0  0  0  0  0  0
   19.9551   16.1068   22.4532 H   0  0  0  0  0  0  0  0  0  0  0  0
   20.9781   16.7167   23.7353 H   0  0  0  0  0  0  0  0  0  0  0  0
   18.8752   16.4690   24.2898 C   0  0  0  0  0  0  0  0  0  0  0  0
   18.6446   15.3996   24.1844 H   0  0  0  0  0  0  0  0  0  0  0  0
   17.9454   17.0028   24.0485 H   0  0  0  0  0  0  0  0  0  0  0  0
   19.2773   16.7260   25.7612 C   0  0  0  0  0  0  0  0  0  0  0  0
   19.5034   17.7811   25.9499 H   0  0  0  0  0  0  0  0  0  0  0  0
   20.1630   16.1374   26.0336 H   0  0  0  0  0  0  0  0  0  0  0  0
   18.4638   16.4343   26.4380 H   0  0  0  0  0  0  0  0  0  0  0  0
   21.0430   22.4789   21.5365 C   0  0  0  0  0  0  0  0  0  0  0  0
   20.9839   23.2145   22.3418 H   0  0  0  0  0  0  0  0  0  0  0  0
   21.9264   22.6727   20.9241 H   0  0  0  0  0  0  0  0  0  0  0  0
   20.1451   22.5353   20.9172 H   0  0  0  0  0  0  0  0  0  0  0  0
  1  2  1  0  0  0  0
  1  3  1  0  0  0  0
  1  4  1  0  0  0  0
  4  5  1  0  0  0  0
  4  6  1  0  0  0  0
  4  7  1  0  0  0  0
  7  8  1  0  0  0  0
  7  9  1  0  0  0  0
  7 10  1  0  0  0  0
 10 11  1  0  0  0  0
 10 12  1  0  0  0  0
 10 13  1  0  0  0  0
 13 14  1  0  0  0  0
 13 15  1  0  0  0  0
 13 16  1  0  0  0  0
 16 17  1  0  0  0  0
 16 18  1  0  0  0  0
 16 19  1  0  0  0  0
 19 20  1  0  0  0  0
 19 21  1  0  0  0  0
 19 22  1  0  0  0  0
  1 23  1  0  0  0  0
 23 24  1  0  0  0  0
 23 25  1  0  0  0  0
 23 26  1  0  0  0  0
M  END
> <VConfSearch Rank>
590

> <Conf_Id>
76

> <Delta U+W>
3.468

> <U+W>
25.310

> <U>
74.594

> <W>
-49.283

> <W(PB)>
-51.537

> <W(SA)>
2.253

> <Valence>
4.886

> <Coulomb>
69.332

> <VdW>
0.376

> <VdW6>
-7.329

> <VdW12>
7.705

> <Bond>
0.232

> <Angle>
1.251

> <Pdih>
3.403

> <Idih>
0.000

> <Tether>
0.000

$$$$
VeraChem MOL file


 26 25  0  0  0  0  0  0  0  0999 V2000     
   21.4201   21.4864   23.6328 N   0  3  0  0  0  0  0  0  0  0  0  0
   21.0094   21.4817   24.5794 H   0  0  0  0  0  0  0  0  0  0  0  0
   20.8210   22.1162   23.0765 H   0  0  0  0  0  0  0  0  0  0  0  0
   21.3975   20.0895   23.0455 C   0  0  0  0  0  0  0  0  0  0  0  0
   22.0357   19.4548   23.6655 H   0  0  0  0  0  0  0  0  0  0  0  0
   21.8313   20.1399   22.0436 H   0  0  0  0  0  0  0  0  0  0  0  0
   19.9843   19.4840   22.9680 C   0  0  0  0  0  0  0  0  0  0  0  0
   19.5470   19.4607   23.9725 H   0  0  0  0  0  0  0  0  0  0  0  0
   19.3440   20.1349   22.3579 H   0  0  0  0  0  0  0  0  0  0  0  0
   20.0132   18.0641   22.3526 C   0  0  0  0  0  0  0  0  0  0  0  0
   20.6962   17.4152   22.9182 H   0  0  0  0  0  0  0  0  0  0  0  0
   20.4354   18.1397   21.3408 H   0  0  0  0  0  0  0  0  0  0  0  0
   18.6128   17.4043   22.2518 C   0  0  0  0  0  0  0  0  0  0  0  0
   17.8375   18.1718   22.1212 H   0  0  0  0  0  0  0  0  0  0  0  0
   18.5857   16.7984   21.3355 H   0  0  0  0  0  0  0  0  0  0  0  0
   18.2467   16.4731   23.4361 C   0  0  0  0  0  0  0  0  0  0  0  0
   18.9701   15.6478   23.4932 H   0  0  0  0  0  0  0  0  0  0  0  0
   17.2730   16.0090   23.2256 H   0  0  0  0  0  0  0  0  0  0  0  0
   18.1705   17.1828   24.8057 C   0  0  0  0  0  0  0  0  0  0  0  0
   17.5053   18.0549   24.7642 H   0  0  0  0  0  0  0  0  0  0  0  0
   19.1618   17.5131   25.1393 H   0  0  0  0  0  0  0  0  0  0  0  0
   17.7797   16.4990   25.5703 H   0  0  0  0  0  0  0  0  0  0  0  0
   22.8498   22.0080   23.6738 C   0  0  0  0  0  0  0  0  0  0  0  0
   23.4565   21.3446   24.2941 H   0  0  0  0  0  0  0  0  0  0  0  0
   23.2514   22.0352   22.6584 H   0  0  0  0  0  0  0  0  0  0  0  0
   22.8520   23.0143   24.0984 H   0  0  0  0  0  0  0  0  0  0  0  0
  1  2  1  0  0  0  0
  1  3  1  0  0  0  0
  1  4  1  0  0  0  0
  4  5  1  0  0  0  0
  4  6  1  0  0  0  0
  4  7  1  0  0  0  0
  7  8  1  0  0  0  0
  7  9  1  0  0  0  0
  7 10  1  0  0  0  0
 10 11  1  0  0  0  0
 10 12  1  0  0  0  0
 10 13  1  0  0  0  0
 13 14  1  0  0  0  0
 13 15  1  0  0  0  0
 13 16  1  0  0  0  0
 16 17  1  0  0  0  0
 16 18  1  0  0  0  0
 16 19  1  0  0  0  0
 19 20  1  0  0  0  0
 19 21  1  0  0  0  0
 19 22  1  0  0  0  0
  1 23  1  0  0  0  0
 23 24  1  0  0  0  0
 23 25  1  0  0  0  0
 23 26  1  0  0  0  0
M  END
> <VConfSearch Rank>
591

> <Conf_Id>
123

> <Delta U+W>
3.101

> <U+W>
24.943

> <U>
74.070

> <W>
-49.127

> <W(PB)>
-51.421

> <W(SA)>
2.295

> <Valence>
4.690

> <Coulomb>
69.115

> <VdW>
0.266

> <VdW6>
-6.809

> <VdW12>
7.075

> <Bond>
0.212

> <Angle>
1.133

> <Pdih>
3.345

> <Idih>
0.000

> <Tether>
0.000

$$$$
VeraChem MOL file


 26 25  0  0  0  0  0  0  0  0999 V2000     
   18.5946   17.4034   21.9906 N   0  3  0  0  0  0  0  0  0  0  0  0
   19.2383   17.0366   21.2724 H   0  0  0  0  0  0  0  0  0  0  0  0
   18.2941   18.3277   21.6464 H   0  0  0  0  0  0  0  0  0  0  0  0
   19.3196   17.5511   23.3144 C   0  0  0  0  0  0  0  0  0  0  0  0
   19.6176   16.5512   23.6399 H   0  0  0  0  0  0  0  0  0  0  0  0
   18.6109   17.9503   24.0443 H   0  0  0  0  0  0  0  0  0  0  0  0
   20.5637   18.4588   23.2499 C   0  0  0  0  0  0  0  0  0  0  0  0
   21.0731   18.4104   24.2188 H   0  0  0  0  0  0  0  0  0  0  0  0
   21.2700   18.0573   22.5112 H   0  0  0  0  0  0  0  0  0  0  0  0
   20.2137   19.9279   22.9002 C   0  0  0  0  0  0  0  0  0  0  0  0
   19.4350   20.3071   23.5764 H   0  0  0  0  0  0  0  0  0  0  0  0
   19.7799   19.9533   21.8917 H   0  0  0  0  0  0  0  0  0  0  0  0
   21.4423   20.8747   22.9211 C   0  0  0  0  0  0  0  0  0  0  0  0
   22.3559   20.3206   22.6652 H   0  0  0  0  0  0  0  0  0  0  0  0
   21.3149   21.6187   22.1224 H   0  0  0  0  0  0  0  0  0  0  0  0
   21.6422   21.6482   24.2498 C   0  0  0  0  0  0  0  0  0  0  0  0
   20.7639   22.2794   24.4443 H   0  0  0  0  0  0  0  0  0  0  0  0
   22.4898   22.3371   24.1278 H   0  0  0  0  0  0  0  0  0  0  0  0
   21.9083   20.7489   25.4770 C   0  0  0  0  0  0  0  0  0  0  0  0
   22.7459   20.0640   25.2925 H   0  0  0  0  0  0  0  0  0  0  0  0
   21.0223   20.1569   25.7374 H   0  0  0  0  0  0  0  0  0  0  0  0
   22.1618   21.3605   26.3525 H   0  0  0  0  0  0  0  0  0  0  0  0
   17.3957   16.4800   22.1562 C   0  0  0  0  0  0  0  0  0  0  0  0
   16.7148   16.9050   22.8970 H   0  0  0  0  0  0  0  0  0  0  0  0
   16.8830   16.3829   21.1967 H   0  0  0  0  0  0  0  0  0  0  0  0
   17.7413   15.4994   22.4907 H   0  0  0  0  0  0  0  0  0  0  0  0
  1  2  1  0  0  0  0
  1  3  1  0  0  0  0
  1  4  1  0  0  0  0
  4  5  1  0  0  0  0
  4  6  1  0  0  0  0
  4  7  1  0  0  0  0
  7  8  1  0  0  0  0
  7  9  1  0  0  0  0
  7 10  1  0  0  0  0
 10 11  1  0  0  0  0
 10 12  1  0  0  0  0
 10 13  1  0  0  0  0
 13 14  1  0  0  0  0
 13 15  1  0  0  0  0
 13 16  1  0  0  0  0
 16 17  1  0  0  0  0
 16 18  1  0  0  0  0
 16 19  1  0  0  0  0
 19 20  1  0  0  0  0
 19 21  1  0  0  0  0
 19 22  1  0  0  0  0
  1 23  1  0  0  0  0
 23 24  1  0  0  0  0
 23 25  1  0  0  0  0
 23 26  1  0  0  0  0
M  END
> <VConfSearch Rank>
592

> <Conf_Id>
111

> <Delta U+W>
3.383

> <U+W>
25.225

> <U>
74.516

> <W>
-49.292

> <W(PB)>
-51.558

> <W(SA)>
2.266

> <Valence>
4.842

> <Coulomb>
69.333

> <VdW>
0.342

> <VdW6>
-7.369

> <VdW12>
7.711

> <Bond>
0.232

> <Angle>
1.153

> <Pdih>
3.457

> <Idih>
0.000

> <Tether>
0.000

$$$$
VeraChem MOL file


 26 25  0  0  0  0  0  0  0  0999 V2000     
   20.2783   18.5292   25.5901 N   0  3  0  0  0  0  0  0  0  0  0  0
   20.7923   17.6524   25.7679 H   0  0  0  0  0  0  0  0  0  0  0  0
   19.4665   18.2624   25.0131 H   0  0  0  0  0  0  0  0  0  0  0  0
   21.1564   19.5032   24.8291 C   0  0  0  0  0  0  0  0  0  0  0  0
   22.0076   19.7506   25.4685 H   0  0  0  0  0  0  0  0  0  0  0  0
   20.5808   20.4168   24.6634 H   0  0  0  0  0  0  0  0  0  0  0  0
   21.6707   18.9578   23.4806 C   0  0  0  0  0  0  0  0  0  0  0  0
   22.3313   19.7084   23.0268 H   0  0  0  0  0  0  0  0  0  0  0  0
   22.2955   18.0740   23.6665 H   0  0  0  0  0  0  0  0  0  0  0  0
   20.5500   18.5897   22.4753 C   0  0  0  0  0  0  0  0  0  0  0  0
   19.9338   17.7771   22.8823 H   0  0  0  0  0  0  0  0  0  0  0  0
   21.0243   18.1885   21.5703 H   0  0  0  0  0  0  0  0  0  0  0  0
   19.6487   19.7931   22.0981 C   0  0  0  0  0  0  0  0  0  0  0  0
   19.1921   20.2102   23.0053 H   0  0  0  0  0  0  0  0  0  0  0  0
   20.2631   20.5945   21.6652 H   0  0  0  0  0  0  0  0  0  0  0  0
   18.5112   19.4263   21.1140 C   0  0  0  0  0  0  0  0  0  0  0  0
   17.8565   20.3006   20.9919 H   0  0  0  0  0  0  0  0  0  0  0  0
   17.8857   18.6331   21.5468 H   0  0  0  0  0  0  0  0  0  0  0  0
   19.0176   18.9877   19.7209 C   0  0  0  0  0  0  0  0  0  0  0  0
   19.5738   18.0436   19.7716 H   0  0  0  0  0  0  0  0  0  0  0  0
   19.6728   19.7504   19.2804 H   0  0  0  0  0  0  0  0  0  0  0  0
   18.1733   18.8354   19.0361 H   0  0  0  0  0  0  0  0  0  0  0  0
   19.8206   19.1570   26.8992 C   0  0  0  0  0  0  0  0  0  0  0  0
   19.1888   18.4457   27.4359 H   0  0  0  0  0  0  0  0  0  0  0  0
   20.6957   19.4029   27.5046 H   0  0  0  0  0  0  0  0  0  0  0  0
   19.2531   20.0648   26.6831 H   0  0  0  0  0  0  0  0  0  0  0  0
  1  2  1  0  0  0  0
  1  3  1  0  0  0  0
  1  4  1  0  0  0  0
  4  5  1  0  0  0  0
  4  6  1  0  0  0  0
  4  7  1  0  0  0  0
  7  8  1  0  0  0  0
  7  9  1  0  0  0  0
  7 10  1  0  0  0  0
 10 11  1  0  0  0  0
 10 12  1  0  0  0  0
 10 13  1  0  0  0  0
 13 14  1  0  0  0  0
 13 15  1  0  0  0  0
 13 16  1  0  0  0  0
 16 17  1  0  0  0  0
 16 18  1  0  0  0  0
 16 19  1  0  0  0  0
 19 20  1  0  0  0  0
 19 21  1  0  0  0  0
 19 22  1  0  0  0  0
  1 23  1  0  0  0  0
 23 24  1  0  0  0  0
 23 25  1  0  0  0  0
 23 26  1  0  0  0  0
M  END
> <VConfSearch Rank>
593

> <Conf_Id>
126

> <Delta U+W>
1.519

> <U+W>
23.361

> <U>
72.579

> <W>
-49.218

> <W(PB)>
-51.496

> <W(SA)>
2.279

> <Valence>
2.678

> <Coulomb>
69.622

> <VdW>
0.279

> <VdW6>
-7.328

> <VdW12>
7.608

> <Bond>
0.212

> <Angle>
0.911

> <Pdih>
1.555

> <Idih>
0.000

> <Tether>
0.000

$$$$
VeraChem MOL file


 26 25  0  0  0  0  0  0  0  0999 V2000     
   19.3915   20.8566   21.7619 N   0  3  0  0  0  0  0  0  0  0  0  0
   20.3042   20.3786   21.7203 H   0  0  0  0  0  0  0  0  0  0  0  0
   19.5959   21.8175   22.0773 H   0  0  0  0  0  0  0  0  0  0  0  0
   18.4882   20.1609   22.7613 C   0  0  0  0  0  0  0  0  0  0  0  0
   18.2925   19.1514   22.3925 H   0  0  0  0  0  0  0  0  0  0  0  0
   17.5396   20.7032   22.7835 H   0  0  0  0  0  0  0  0  0  0  0  0
   19.0718   20.0919   24.1879 C   0  0  0  0  0  0  0  0  0  0  0  0
   19.2089   21.1127   24.5686 H   0  0  0  0  0  0  0  0  0  0  0  0
   18.3331   19.6170   24.8473 H   0  0  0  0  0  0  0  0  0  0  0  0
   20.4142   19.3239   24.2886 C   0  0  0  0  0  0  0  0  0  0  0  0
   20.7496   19.3622   25.3331 H   0  0  0  0  0  0  0  0  0  0  0  0
   21.1858   19.8395   23.7016 H   0  0  0  0  0  0  0  0  0  0  0  0
   20.3080   17.8462   23.8323 C   0  0  0  0  0  0  0  0  0  0  0  0
   19.5556   17.3244   24.4395 H   0  0  0  0  0  0  0  0  0  0  0  0
   19.9498   17.8056   22.7952 H   0  0  0  0  0  0  0  0  0  0  0  0
   21.6516   17.0806   23.9058 C   0  0  0  0  0  0  0  0  0  0  0  0
   22.4053   17.5913   23.2903 H   0  0  0  0  0  0  0  0  0  0  0  0
   21.5142   16.0858   23.4593 H   0  0  0  0  0  0  0  0  0  0  0  0
   22.1860   16.9082   25.3460 C   0  0  0  0  0  0  0  0  0  0  0  0
   21.4375   16.4292   25.9906 H   0  0  0  0  0  0  0  0  0  0  0  0
   22.4601   17.8714   25.7936 H   0  0  0  0  0  0  0  0  0  0  0  0
   23.0840   16.2769   25.3492 H   0  0  0  0  0  0  0  0  0  0  0  0
   18.7328   20.8716   20.3897 C   0  0  0  0  0  0  0  0  0  0  0  0
   18.5559   19.8439   20.0650 H   0  0  0  0  0  0  0  0  0  0  0  0
   17.7837   21.4083   20.4531 H   0  0  0  0  0  0  0  0  0  0  0  0
   19.3941   21.3741   19.6803 H   0  0  0  0  0  0  0  0  0  0  0  0
  1  2  1  0  0  0  0
  1  3  1  0  0  0  0
  1  4  1  0  0  0  0
  4  5  1  0  0  0  0
  4  6  1  0  0  0  0
  4  7  1  0  0  0  0
  7  8  1  0  0  0  0
  7  9  1  0  0  0  0
  7 10  1  0  0  0  0
 10 11  1  0  0  0  0
 10 12  1  0  0  0  0
 10 13  1  0  0  0  0
 13 14  1  0  0  0  0
 13 15  1  0  0  0  0
 13 16  1  0  0  0  0
 16 17  1  0  0  0  0
 16 18  1  0  0  0  0
 16 19  1  0  0  0  0
 19 20  1  0  0  0  0
 19 21  1  0  0  0  0
 19 22  1  0  0  0  0
  1 23  1  0  0  0  0
 23 24  1  0  0  0  0
 23 25  1  0  0  0  0
 23 26  1  0  0  0  0
M  END
> <VConfSearch Rank>
594

> <Conf_Id>
134

> <Delta U+W>
1.464

> <U+W>
23.306

> <U>
72.579

> <W>
-49.273

> <W(PB)>
-51.540

> <W(SA)>
2.267

> <Valence>
2.677

> <Coulomb>
69.622

> <VdW>
0.280

> <VdW6>
-7.328

> <VdW12>
7.608

> <Bond>
0.212

> <Angle>
0.911

> <Pdih>
1.555

> <Idih>
0.000

> <Tether>
0.000

$$$$
VeraChem MOL file


 26 25  0  0  0  0  0  0  0  0999 V2000     
   22.3425   19.8102   21.7921 N   0  3  0  0  0  0  0  0  0  0  0  0
   22.2139   20.7494   22.1997 H   0  0  0  0  0  0  0  0  0  0  0  0
   21.9253   19.8602   20.8496 H   0  0  0  0  0  0  0  0  0  0  0  0
   21.6204   18.7734   22.6290 C   0  0  0  0  0  0  0  0  0  0  0  0
   22.0856   18.7574   23.6179 H   0  0  0  0  0  0  0  0  0  0  0  0
   21.7742   17.7981   22.1604 H   0  0  0  0  0  0  0  0  0  0  0  0
   20.1123   19.0479   22.7707 C   0  0  0  0  0  0  0  0  0  0  0  0
   19.9703   20.0366   23.2251 H   0  0  0  0  0  0  0  0  0  0  0  0
   19.6515   19.0789   21.7745 H   0  0  0  0  0  0  0  0  0  0  0  0
   19.4210   17.9640   23.6308 C   0  0  0  0  0  0  0  0  0  0  0  0
   19.8542   17.9583   24.6399 H   0  0  0  0  0  0  0  0  0  0  0  0
   19.6407   16.9758   23.2032 H   0  0  0  0  0  0  0  0  0  0  0  0
   17.8812   18.1275   23.7162 C   0  0  0  0  0  0  0  0  0  0  0  0
   17.4538   18.0175   22.7099 H   0  0  0  0  0  0  0  0  0  0  0  0
   17.4713   17.2976   24.3082 H   0  0  0  0  0  0  0  0  0  0  0  0
   17.3894   19.4663   24.3236 C   0  0  0  0  0  0  0  0  0  0  0  0
   16.2905   19.4641   24.3303 H   0  0  0  0  0  0  0  0  0  0  0  0
   17.6829   20.3064   23.6800 H   0  0  0  0  0  0  0  0  0  0  0  0
   17.8947   19.7110   25.7637 C   0  0  0  0  0  0  0  0  0  0  0  0
   17.6291   18.8742   26.4227 H   0  0  0  0  0  0  0  0  0  0  0  0
   17.4446   20.6216   26.1797 H   0  0  0  0  0  0  0  0  0  0  0  0
   18.9839   19.8389   25.7918 H   0  0  0  0  0  0  0  0  0  0  0  0
   23.8226   19.4649   21.7033 C   0  0  0  0  0  0  0  0  0  0  0  0
   23.9349   18.4825   21.2392 H   0  0  0  0  0  0  0  0  0  0  0  0
   24.3307   20.2190   21.0981 H   0  0  0  0  0  0  0  0  0  0  0  0
   24.2490   19.4503   22.7087 H   0  0  0  0  0  0  0  0  0  0  0  0
  1  2  1  0  0  0  0
  1  3  1  0  0  0  0
  1  4  1  0  0  0  0
  4  5  1  0  0  0  0
  4  6  1  0  0  0  0
  4  7  1  0  0  0  0
  7  8  1  0  0  0  0
  7  9  1  0  0  0  0
  7 10  1  0  0  0  0
 10 11  1  0  0  0  0
 10 12  1  0  0  0  0
 10 13  1  0  0  0  0
 13 14  1  0  0  0  0
 13 15  1  0  0  0  0
 13 16  1  0  0  0  0
 16 17  1  0  0  0  0
 16 18  1  0  0  0  0
 16 19  1  0  0  0  0
 19 20  1  0  0  0  0
 19 21  1  0  0  0  0
 19 22  1  0  0  0  0
  1 23  1  0  0  0  0
 23 24  1  0  0  0  0
 23 25  1  0  0  0  0
 23 26  1  0  0  0  0
M  END
> <VConfSearch Rank>
595

> <Conf_Id>
30

> <Delta U+W>
0.910

> <U+W>
22.752

> <U>
71.870

> <W>
-49.118

> <W(PB)>
-51.409

> <W(SA)>
2.290

> <Valence>
2.682

> <Coulomb>
68.933

> <VdW>
0.255

> <VdW6>
-6.833

> <VdW12>
7.088

> <Bond>
0.205

> <Angle>
1.003

> <Pdih>
1.473

> <Idih>
0.000

> <Tether>
0.000

$$$$
VeraChem MOL file


 26 25  0  0  0  0  0  0  0  0999 V2000     
   18.3663   17.0595   24.4090 N   0  3  0  0  0  0  0  0  0  0  0  0
   18.4980   16.3041   23.7185 H   0  0  0  0  0  0  0  0  0  0  0  0
   17.5740   17.6188   24.0565 H   0  0  0  0  0  0  0  0  0  0  0  0
   19.6145   17.9150   24.4923 C   0  0  0  0  0  0  0  0  0  0  0  0
   20.4285   17.2852   24.8603 H   0  0  0  0  0  0  0  0  0  0  0  0
   19.4316   18.7046   25.2255 H   0  0  0  0  0  0  0  0  0  0  0  0
   20.0138   18.5424   23.1445 C   0  0  0  0  0  0  0  0  0  0  0  0
   20.1813   17.7468   22.4064 H   0  0  0  0  0  0  0  0  0  0  0  0
   19.1827   19.1571   22.7763 H   0  0  0  0  0  0  0  0  0  0  0  0
   21.2914   19.4036   23.2807 C   0  0  0  0  0  0  0  0  0  0  0  0
   22.0888   18.7909   23.7237 H   0  0  0  0  0  0  0  0  0  0  0  0
   21.1130   20.2234   23.9893 H   0  0  0  0  0  0  0  0  0  0  0  0
   21.8045   19.9714   21.9318 C   0  0  0  0  0  0  0  0  0  0  0  0
   22.7313   20.5322   22.1156 H   0  0  0  0  0  0  0  0  0  0  0  0
   22.0849   19.1357   21.2759 H   0  0  0  0  0  0  0  0  0  0  0  0
   20.8074   20.8866   21.1758 C   0  0  0  0  0  0  0  0  0  0  0  0
   19.9213   20.3137   20.8715 H   0  0  0  0  0  0  0  0  0  0  0  0
   21.2809   21.2234   20.2429 H   0  0  0  0  0  0  0  0  0  0  0  0
   20.3730   22.1272   21.9888 C   0  0  0  0  0  0  0  0  0  0  0  0
   19.7902   21.8443   22.8742 H   0  0  0  0  0  0  0  0  0  0  0  0
   19.7443   22.7871   21.3770 H   0  0  0  0  0  0  0  0  0  0  0  0
   21.2442   22.7066   22.3206 H   0  0  0  0  0  0  0  0  0  0  0  0
   18.0431   16.4800   25.7792 C   0  0  0  0  0  0  0  0  0  0  0  0
   17.1426   15.8662   25.7052 H   0  0  0  0  0  0  0  0  0  0  0  0
   18.8812   15.8661   26.1164 H   0  0  0  0  0  0  0  0  0  0  0  0
   17.8756   17.2972   26.4843 H   0  0  0  0  0  0  0  0  0  0  0  0
  1  2  1  0  0  0  0
  1  3  1  0  0  0  0
  1  4  1  0  0  0  0
  4  5  1  0  0  0  0
  4  6  1  0  0  0  0
  4  7  1  0  0  0  0
  7  8  1  0  0  0  0
  7  9  1  0  0  0  0
  7 10  1  0  0  0  0
 10 11  1  0  0  0  0
 10 12  1  0  0  0  0
 10 13  1  0  0  0  0
 13 14  1  0  0  0  0
 13 15  1  0  0  0  0
 13 16  1  0  0  0  0
 16 17  1  0  0  0  0
 16 18  1  0  0  0  0
 16 19  1  0  0  0  0
 19 20  1  0  0  0  0
 19 21  1  0  0  0  0
 19 22  1  0  0  0  0
  1 23  1  0  0  0  0
 23 24  1  0  0  0  0
 23 25  1  0  0  0  0
 23 26  1  0  0  0  0
M  END
> <VConfSearch Rank>
596

> <Conf_Id>
29

> <Delta U+W>
0.886

> <U+W>
22.729

> <U>
71.870

> <W>
-49.141

> <W(PB)>
-51.404

> <W(SA)>
2.262

> <Valence>
2.682

> <Coulomb>
68.933

> <VdW>
0.255

> <VdW6>
-6.833

> <VdW12>
7.088

> <Bond>
0.205

> <Angle>
1.003

> <Pdih>
1.473

> <Idih>
0.000

> <Tether>
0.000

$$$$
VeraChem MOL file


 26 25  0  0  0  0  0  0  0  0999 V2000     
   21.2568   17.2394   24.7036 N   0  3  0  0  0  0  0  0  0  0  0  0
   21.1733   17.3147   25.7293 H   0  0  0  0  0  0  0  0  0  0  0  0
   22.1155   17.7567   24.4592 H   0  0  0  0  0  0  0  0  0  0  0  0
   20.0549   17.8739   24.0334 C   0  0  0  0  0  0  0  0  0  0  0  0
   19.1682   17.3065   24.3269 H   0  0  0  0  0  0  0  0  0  0  0  0
   20.1852   17.7756   22.9530 H   0  0  0  0  0  0  0  0  0  0  0  0
   19.8654   19.3580   24.4005 C   0  0  0  0  0  0  0  0  0  0  0  0
   19.7712   19.4496   25.4906 H   0  0  0  0  0  0  0  0  0  0  0  0
   20.7615   19.9261   24.1198 H   0  0  0  0  0  0  0  0  0  0  0  0
   18.6131   19.9822   23.7360 C   0  0  0  0  0  0  0  0  0  0  0  0
   18.5244   21.0305   24.0510 H   0  0  0  0  0  0  0  0  0  0  0  0
   17.7171   19.4797   24.1258 H   0  0  0  0  0  0  0  0  0  0  0  0
   18.5901   19.9023   22.1855 C   0  0  0  0  0  0  0  0  0  0  0  0
   18.5090   18.8518   21.8753 H   0  0  0  0  0  0  0  0  0  0  0  0
   17.6735   20.3877   21.8232 H   0  0  0  0  0  0  0  0  0  0  0  0
   19.8093   20.5423   21.4739 C   0  0  0  0  0  0  0  0  0  0  0  0
   19.6883   20.4146   20.3891 H   0  0  0  0  0  0  0  0  0  0  0  0
   20.7294   20.0043   21.7385 H   0  0  0  0  0  0  0  0  0  0  0  0
   19.9781   22.0476   21.7815 C   0  0  0  0  0  0  0  0  0  0  0  0
   20.7998   22.4714   21.1899 H   0  0  0  0  0  0  0  0  0  0  0  0
   20.2106   22.2187   22.8399 H   0  0  0  0  0  0  0  0  0  0  0  0
   19.0651   22.6052   21.5356 H   0  0  0  0  0  0  0  0  0  0  0  0
   21.3740   15.7810   24.2829 C   0  0  0  0  0  0  0  0  0  0  0  0
   22.2430   15.3357   24.7725 H   0  0  0  0  0  0  0  0  0  0  0  0
   20.4689   15.2474   24.5811 H   0  0  0  0  0  0  0  0  0  0  0  0
   21.4944   15.7285   23.1986 H   0  0  0  0  0  0  0  0  0  0  0  0
  1  2  1  0  0  0  0
  1  3  1  0  0  0  0
  1  4  1  0  0  0  0
  4  5  1  0  0  0  0
  4  6  1  0  0  0  0
  4  7  1  0  0  0  0
  7  8  1  0  0  0  0
  7  9  1  0  0  0  0
  7 10  1  0  0  0  0
 10 11  1  0  0  0  0
 10 12  1  0  0  0  0
 10 13  1  0  0  0  0
 13 14  1  0  0  0  0
 13 15  1  0  0  0  0
 13 16  1  0  0  0  0
 16 17  1  0  0  0  0
 16 18  1  0  0  0  0
 16 19  1  0  0  0  0
 19 20  1  0  0  0  0
 19 21  1  0  0  0  0
 19 22  1  0  0  0  0
  1 23  1  0  0  0  0
 23 24  1  0  0  0  0
 23 25  1  0  0  0  0
 23 26  1  0  0  0  0
M  END
> <VConfSearch Rank>
597

> <Conf_Id>
82

> <Delta U+W>
1.026

> <U+W>
22.868

> <U>
72.455

> <W>
-49.586

> <W(PB)>
-51.821

> <W(SA)>
2.234

> <Valence>
2.908

> <Coulomb>
69.435

> <VdW>
0.112

> <VdW6>
-7.765

> <VdW12>
7.877

> <Bond>
0.233

> <Angle>
1.170

> <Pdih>
1.506

> <Idih>
0.000

> <Tether>
0.000

$$$$
VeraChem MOL file


 26 25  0  0  0  0  0  0  0  0999 V2000     
   17.9325   18.0018   22.2831 N   0  3  0  0  0  0  0  0  0  0  0  0
   17.9084   18.8254   21.6621 H   0  0  0  0  0  0  0  0  0  0  0  0
   17.0788   18.0670   22.8590 H   0  0  0  0  0  0  0  0  0  0  0  0
   19.1633   18.0477   23.1659 C   0  0  0  0  0  0  0  0  0  0  0  0
   20.0406   17.9796   22.5182 H   0  0  0  0  0  0  0  0  0  0  0  0
   19.1444   17.1684   23.8146 H   0  0  0  0  0  0  0  0  0  0  0  0
   19.2499   19.3236   24.0249 C   0  0  0  0  0  0  0  0  0  0  0  0
   19.2537   20.2078   23.3749 H   0  0  0  0  0  0  0  0  0  0  0  0
   18.3474   19.4011   24.6456 H   0  0  0  0  0  0  0  0  0  0  0  0
   20.4941   19.3391   24.9472 C   0  0  0  0  0  0  0  0  0  0  0  0
   20.4087   18.5177   25.6721 H   0  0  0  0  0  0  0  0  0  0  0  0
   20.4875   20.2612   25.5436 H   0  0  0  0  0  0  0  0  0  0  0  0
   21.8540   19.2080   24.2091 C   0  0  0  0  0  0  0  0  0  0  0  0
   22.6617   19.2492   24.9528 H   0  0  0  0  0  0  0  0  0  0  0  0
   21.9262   18.2122   23.7513 H   0  0  0  0  0  0  0  0  0  0  0  0
   22.1204   20.2801   23.1219 C   0  0  0  0  0  0  0  0  0  0  0  0
   21.3856   20.1896   22.3107 H   0  0  0  0  0  0  0  0  0  0  0  0
   23.0991   20.0790   22.6643 H   0  0  0  0  0  0  0  0  0  0  0  0
   22.1159   21.7248   23.6714 C   0  0  0  0  0  0  0  0  0  0  0  0
   21.1241   22.0114   24.0424 H   0  0  0  0  0  0  0  0  0  0  0  0
   22.3925   22.4370   22.8833 H   0  0  0  0  0  0  0  0  0  0  0  0
   22.8357   21.8366   24.4926 H   0  0  0  0  0  0  0  0  0  0  0  0
   17.9289   16.7170   21.4664 C   0  0  0  0  0  0  0  0  0  0  0  0
   17.9211   15.8606   22.1443 H   0  0  0  0  0  0  0  0  0  0  0  0
   17.0375   16.6961   20.8355 H   0  0  0  0  0  0  0  0  0  0  0  0
   18.8241   16.6862   20.8414 H   0  0  0  0  0  0  0  0  0  0  0  0
  1  2  1  0  0  0  0
  1  3  1  0  0  0  0
  1  4  1  0  0  0  0
  4  5  1  0  0  0  0
  4  6  1  0  0  0  0
  4  7  1  0  0  0  0
  7  8  1  0  0  0  0
  7  9  1  0  0  0  0
  7 10  1  0  0  0  0
 10 11  1  0  0  0  0
 10 12  1  0  0  0  0
 10 13  1  0  0  0  0
 13 14  1  0  0  0  0
 13 15  1  0  0  0  0
 13 16  1  0  0  0  0
 16 17  1  0  0  0  0
 16 18  1  0  0  0  0
 16 19  1  0  0  0  0
 19 20  1  0  0  0  0
 19 21  1  0  0  0  0
 19 22  1  0  0  0  0
  1 23  1  0  0  0  0
 23 24  1  0  0  0  0
 23 25  1  0  0  0  0
 23 26  1  0  0  0  0
M  END
> <VConfSearch Rank>
598

> <Conf_Id>
71

> <Delta U+W>
1.096

> <U+W>
22.938

> <U>
72.455

> <W>
-49.517

> <W(PB)>
-51.795

> <W(SA)>
2.278

> <Valence>
2.908

> <Coulomb>
69.435

> <VdW>
0.112

> <VdW6>
-7.766

> <VdW12>
7.877

> <Bond>
0.233

> <Angle>
1.170

> <Pdih>
1.506

> <Idih>
0.000

> <Tether>
0.000

$$$$
VeraChem MOL file


 26 25  0  0  0  0  0  0  0  0999 V2000     
   21.1793   20.8744   22.0131 N   0  3  0  0  0  0  0  0  0  0  0  0
   21.1643   19.8834   21.7295 H   0  0  0  0  0  0  0  0  0  0  0  0
   22.1566   21.1791   21.8797 H   0  0  0  0  0  0  0  0  0  0  0  0
   20.8013   21.0001   23.4805 C   0  0  0  0  0  0  0  0  0  0  0  0
   20.8105   22.0628   23.7356 H   0  0  0  0  0  0  0  0  0  0  0  0
   21.5855   20.5104   24.0628 H   0  0  0  0  0  0  0  0  0  0  0  0
   19.4332   20.3892   23.8606 C   0  0  0  0  0  0  0  0  0  0  0  0
   19.2729   20.5319   24.9374 H   0  0  0  0  0  0  0  0  0  0  0  0
   18.6333   20.9502   23.3602 H   0  0  0  0  0  0  0  0  0  0  0  0
   19.2928   18.8843   23.5186 C   0  0  0  0  0  0  0  0  0  0  0  0
   19.3724   18.7397   22.4329 H   0  0  0  0  0  0  0  0  0  0  0  0
   18.2793   18.5662   23.7951 H   0  0  0  0  0  0  0  0  0  0  0  0
   20.3321   17.9934   24.2457 C   0  0  0  0  0  0  0  0  0  0  0  0
   21.3464   18.3294   23.9939 H   0  0  0  0  0  0  0  0  0  0  0  0
   20.2278   18.1153   25.3327 H   0  0  0  0  0  0  0  0  0  0  0  0
   20.2191   16.4929   23.8818 C   0  0  0  0  0  0  0  0  0  0  0  0
   21.0567   15.9542   24.3467 H   0  0  0  0  0  0  0  0  0  0  0  0
   20.3357   16.3631   22.7968 H   0  0  0  0  0  0  0  0  0  0  0  0
   18.8944   15.8438   24.3438 C   0  0  0  0  0  0  0  0  0  0  0  0
   18.0317   16.2625   23.8112 H   0  0  0  0  0  0  0  0  0  0  0  0
   18.7379   15.9884   25.4207 H   0  0  0  0  0  0  0  0  0  0  0  0
   18.9080   14.7636   24.1494 H   0  0  0  0  0  0  0  0  0  0  0  0
   20.2519   21.7033   21.1321 C   0  0  0  0  0  0  0  0  0  0  0  0
   20.5718   21.6126   20.0917 H   0  0  0  0  0  0  0  0  0  0  0  0
   19.2298   21.3334   21.2358 H   0  0  0  0  0  0  0  0  0  0  0  0
   20.3014   22.7489   21.4434 H   0  0  0  0  0  0  0  0  0  0  0  0
  1  2  1  0  0  0  0
  1  3  1  0  0  0  0
  1  4  1  0  0  0  0
  4  5  1  0  0  0  0
  4  6  1  0  0  0  0
  4  7  1  0  0  0  0
  7  8  1  0  0  0  0
  7  9  1  0  0  0  0
  7 10  1  0  0  0  0
 10 11  1  0  0  0  0
 10 12  1  0  0  0  0
 10 13  1  0  0  0  0
 13 14  1  0  0  0  0
 13 15  1  0  0  0  0
 13 16  1  0  0  0  0
 16 17  1  0  0  0  0
 16 18  1  0  0  0  0
 16 19  1  0  0  0  0
 19 20  1  0  0  0  0
 19 21  1  0  0  0  0
 19 22  1  0  0  0  0
  1 23  1  0  0  0  0
 23 24  1  0  0  0  0
 23 25  1  0  0  0  0
 23 26  1  0  0  0  0
M  END
> <VConfSearch Rank>
599

> <Conf_Id>
84

> <Delta U+W>
1.456

> <U+W>
23.298

> <U>
73.042

> <W>
-49.744

> <W(PB)>
-51.966

> <W(SA)>
2.222

> <Valence>
2.938

> <Coulomb>
69.625

> <VdW>
0.478

> <VdW6>
-8.182

> <VdW12>
8.660

> <Bond>
0.253

> <Angle>
1.038

> <Pdih>
1.647

> <Idih>
0.000

> <Tether>
0.000

$$$$
VeraChem MOL file


 26 25  0  0  0  0  0  0  0  0999 V2000     
   18.6051   17.5933   24.4580 N   0  3  0  0  0  0  0  0  0  0  0  0
   18.5675   18.6176   24.5698 H   0  0  0  0  0  0  0  0  0  0  0  0
   18.8430   17.2212   25.3905 H   0  0  0  0  0  0  0  0  0  0  0  0
   19.6818   17.2208   23.4576 C   0  0  0  0  0  0  0  0  0  0  0  0
   19.3933   17.6275   22.4855 H   0  0  0  0  0  0  0  0  0  0  0  0
   19.6972   16.1309   23.3782 H   0  0  0  0  0  0  0  0  0  0  0  0
   21.0888   17.7267   23.8378 C   0  0  0  0  0  0  0  0  0  0  0  0
   21.3898   17.2706   24.7902 H   0  0  0  0  0  0  0  0  0  0  0  0
   21.8056   17.3679   23.0873 H   0  0  0  0  0  0  0  0  0  0  0  0
   21.1967   19.2684   23.9507 C   0  0  0  0  0  0  0  0  0  0  0  0
   22.2264   19.5260   24.2353 H   0  0  0  0  0  0  0  0  0  0  0  0
   20.5567   19.6297   24.7668 H   0  0  0  0  0  0  0  0  0  0  0  0
   20.8350   20.0030   22.6372 C   0  0  0  0  0  0  0  0  0  0  0  0
   21.4613   19.6213   21.8190 H   0  0  0  0  0  0  0  0  0  0  0  0
   19.7923   19.7938   22.3635 H   0  0  0  0  0  0  0  0  0  0  0  0
   21.0278   21.5308   22.7620 C   0  0  0  0  0  0  0  0  0  0  0  0
   22.0713   21.7533   23.0256 H   0  0  0  0  0  0  0  0  0  0  0  0
   20.4050   21.9181   23.5806 H   0  0  0  0  0  0  0  0  0  0  0  0
   20.6641   22.2623   21.4522 C   0  0  0  0  0  0  0  0  0  0  0  0
   21.2941   21.9202   20.6208 H   0  0  0  0  0  0  0  0  0  0  0  0
   20.8080   23.3452   21.5602 H   0  0  0  0  0  0  0  0  0  0  0  0
   19.6149   22.0876   21.1804 H   0  0  0  0  0  0  0  0  0  0  0  0
   17.2582   17.0564   23.9946 C   0  0  0  0  0  0  0  0  0  0  0  0
   17.3143   15.9687   23.9128 H   0  0  0  0  0  0  0  0  0  0  0  0
   16.4925   17.3324   24.7231 H   0  0  0  0  0  0  0  0  0  0  0  0
   17.0147   17.4887   23.0216 H   0  0  0  0  0  0  0  0  0  0  0  0
  1  2  1  0  0  0  0
  1  3  1  0  0  0  0
  1  4  1  0  0  0  0
  4  5  1  0  0  0  0
  4  6  1  0  0  0  0
  4  7  1  0  0  0  0
  7  8  1  0  0  0  0
  7  9  1  0  0  0  0
  7 10  1  0  0  0  0
 10 11  1  0  0  0  0
 10 12  1  0  0  0  0
 10 13  1  0  0  0  0
 13 14  1  0  0  0  0
 13 15  1  0  0  0  0
 13 16  1  0  0  0  0
 16 17  1  0  0  0  0
 16 18  1  0  0  0  0
 16 19  1  0  0  0  0
 19 20  1  0  0  0  0
 19 21  1  0  0  0  0
 19 22  1  0  0  0  0
  1 23  1  0  0  0  0
 23 24  1  0  0  0  0
 23 25  1  0  0  0  0
 23 26  1  0  0  0  0
M  END
> <VConfSearch Rank>
600

> <Conf_Id>
73

> <Delta U+W>
0.884

> <U+W>
22.726

> <U>
71.905

> <W>
-49.179

> <W(PB)>
-51.494

> <W(SA)>
2.315

> <Valence>
2.125

> <Coulomb>
69.686

> <VdW>
0.093

> <VdW6>
-6.766

> <VdW12>
6.859

> <Bond>
0.169

> <Angle>
0.621

> <Pdih>
1.336

> <Idih>
0.000

> <Tether>
0.000

$$$$
VeraChem MOL file


 26 25  0  0  0  0  0  0  0  0999 V2000     
   21.3857   20.6279   20.7803 N   0  3  0  0  0  0  0  0  0  0  0  0
   20.5745   20.5264   20.1506 H   0  0  0  0  0  0  0  0  0  0  0  0
   22.0322   19.8669   20.5198 H   0  0  0  0  0  0  0  0  0  0  0  0
   20.9501   20.4730   22.2235 C   0  0  0  0  0  0  0  0  0  0  0  0
   20.2627   21.2903   22.4559 H   0  0  0  0  0  0  0  0  0  0  0  0
   21.8363   20.5785   22.8544 H   0  0  0  0  0  0  0  0  0  0  0  0
   20.2669   19.1238   22.5117 C   0  0  0  0  0  0  0  0  0  0  0  0
   19.3866   19.0147   21.8642 H   0  0  0  0  0  0  0  0  0  0  0  0
   20.9550   18.3054   22.2614 H   0  0  0  0  0  0  0  0  0  0  0  0
   19.8408   19.0109   23.9923 C   0  0  0  0  0  0  0  0  0  0  0  0
   19.1567   19.8345   24.2403 H   0  0  0  0  0  0  0  0  0  0  0  0
   20.7233   19.1262   24.6371 H   0  0  0  0  0  0  0  0  0  0  0  0
   19.1535   17.6596   24.2937 C   0  0  0  0  0  0  0  0  0  0  0  0
   18.2710   17.5441   23.6492 H   0  0  0  0  0  0  0  0  0  0  0  0
   19.8373   16.8359   24.0459 H   0  0  0  0  0  0  0  0  0  0  0  0
   18.7275   17.5469   25.7746 C   0  0  0  0  0  0  0  0  0  0  0  0
   18.0412   18.3675   26.0269 H   0  0  0  0  0  0  0  0  0  0  0  0
   19.6074   17.6592   26.4236 H   0  0  0  0  0  0  0  0  0  0  0  0
   18.0415   16.1963   26.0717 C   0  0  0  0  0  0  0  0  0  0  0  0
   17.7465   16.1353   27.1273 H   0  0  0  0  0  0  0  0  0  0  0  0
   18.7160   15.3561   25.8615 H   0  0  0  0  0  0  0  0  0  0  0  0
   17.1376   16.0698   25.4618 H   0  0  0  0  0  0  0  0  0  0  0  0
   22.0493   21.9837   20.5820 C   0  0  0  0  0  0  0  0  0  0  0  0
   22.9231   22.0547   21.2335 H   0  0  0  0  0  0  0  0  0  0  0  0
   22.3580   22.0823   19.5388 H   0  0  0  0  0  0  0  0  0  0  0  0
   21.3363   22.7725   20.8317 H   0  0  0  0  0  0  0  0  0  0  0  0
  1  2  1  0  0  0  0
  1  3  1  0  0  0  0
  1  4  1  0  0  0  0
  4  5  1  0  0  0  0
  4  6  1  0  0  0  0
  4  7  1  0  0  0  0
  7  8  1  0  0  0  0
  7  9  1  0  0  0  0
  7 10  1  0  0  0  0
 10 11  1  0  0  0  0
 10 12  1  0  0  0  0
 10 13  1  0  0  0  0
 13 14  1  0  0  0  0
 13 15  1  0  0  0  0
 13 16  1  0  0  0  0
 16 17  1  0  0  0  0
 16 18  1  0  0  0  0
 16 19  1  0  0  0  0
 19 20  1  0  0  0  0
 19 21  1  0  0  0  0
 19 22  1  0  0  0  0
  1 23  1  0  0  0  0
 23 24  1  0  0  0  0
 23 25  1  0  0  0  0
 23 26  1  0  0  0  0
M  END
> <VConfSearch Rank>
601

> <Conf_Id>
11

> <Delta U+W>
0.000

> <U+W>
21.842

> <U>
70.357

> <W>
-48.515

> <W(PB)>
-50.856

> <W(SA)>
2.341

> <Valence>
1.714

> <Coulomb>
68.480

> <VdW>
0.163

> <VdW6>
-5.268

> <VdW12>
5.431

> <Bond>
0.126

> <Angle>
0.350

> <Pdih>
1.238

> <Idih>
0.000

> <Tether>
0.000

$$$$
VeraChem MOL file


 26 25  0  0  0  0  0  0  0  0999 V2000     
   21.3049   19.7822   20.2306 N   0  3  0  0  0  0  0  0  0  0  0  0
   21.8117   20.5586   19.7763 H   0  0  0  0  0  0  0  0  0  0  0  0
   20.3973   19.7352   19.7422 H   0  0  0  0  0  0  0  0  0  0  0  0
   21.0944   20.1041   21.7007 C   0  0  0  0  0  0  0  0  0  0  0  0
   20.6865   21.1166   21.7560 H   0  0  0  0  0  0  0  0  0  0  0  0
   22.0725   20.1056   22.1884 H   0  0  0  0  0  0  0  0  0  0  0  0
   20.1425   19.1398   22.4374 C   0  0  0  0  0  0  0  0  0  0  0  0
   19.1790   19.1070   21.9116 H   0  0  0  0  0  0  0  0  0  0  0  0
   20.5553   18.1229   22.4170 H   0  0  0  0  0  0  0  0  0  0  0  0
   19.9209   19.5765   23.9025 C   0  0  0  0  0  0  0  0  0  0  0  0
   19.5094   20.5953   23.9228 H   0  0  0  0  0  0  0  0  0  0  0  0
   20.8880   19.6142   24.4232 H   0  0  0  0  0  0  0  0  0  0  0  0
   18.9671   18.6187   24.6523 C   0  0  0  0  0  0  0  0  0  0  0  0
   18.0002   18.5807   24.1315 H   0  0  0  0  0  0  0  0  0  0  0  0
   19.3785   17.6000   24.6323 H   0  0  0  0  0  0  0  0  0  0  0  0
   18.7457   19.0557   26.1176 C   0  0  0  0  0  0  0  0  0  0  0  0
   18.3317   20.0736   26.1429 H   0  0  0  0  0  0  0  0  0  0  0  0
   19.7100   19.0930   26.6436 H   0  0  0  0  0  0  0  0  0  0  0  0
   17.7928   18.0970   26.8631 C   0  0  0  0  0  0  0  0  0  0  0  0
   17.6482   18.4237   27.9011 H   0  0  0  0  0  0  0  0  0  0  0  0
   18.1966   17.0764   26.8846 H   0  0  0  0  0  0  0  0  0  0  0  0
   16.8076   18.0647   26.3800 H   0  0  0  0  0  0  0  0  0  0  0  0
   22.0835   18.4832   20.0550 C   0  0  0  0  0  0  0  0  0  0  0  0
   21.5102   17.6573   20.4808 H   0  0  0  0  0  0  0  0  0  0  0  0
   22.2465   18.3058   18.9896 H   0  0  0  0  0  0  0  0  0  0  0  0
   23.0451   18.5695   20.5657 H   0  0  0  0  0  0  0  0  0  0  0  0
  1  2  1  0  0  0  0
  1  3  1  0  0  0  0
  1  4  1  0  0  0  0
  4  5  1  0  0  0  0
  4  6  1  0  0  0  0
  4  7  1  0  0  0  0
  7  8  1  0  0  0  0
  7  9  1  0  0  0  0
  7 10  1  0  0  0  0
 10 11  1  0  0  0  0
 10 12  1  0  0  0  0
 10 13  1  0  0  0  0
 13 14  1  0  0  0  0
 13 15  1  0  0  0  0
 13 16  1  0  0  0  0
 16 17  1  0  0  0  0
 16 18  1  0  0  0  0
 16 19  1  0  0  0  0
 19 20  1  0  0  0  0
 19 21  1  0  0  0  0
 19 22  1  0  0  0  0
  1 23  1  0  0  0  0
 23 24  1  0  0  0  0
 23 25  1  0  0  0  0
 23 26  1  0  0  0  0
M  END
> <VConfSearch Rank>
602

> <Conf_Id>
102

> <Delta U+W>
0.121

> <U+W>
21.963

> <U>
70.745

> <W>
-48.782

> <W(PB)>
-51.111

> <W(SA)>
2.329

> <Valence>
1.993

> <Coulomb>
68.323

> <VdW>
0.429

> <VdW6>
-5.973

> <VdW12>
6.402

> <Bond>
0.161

> <Angle>
0.472

> <Pdih>
1.360

> <Idih>
0.000

> <Tether>
0.000

$$$$
VeraChem MOL file


 26 25  0  0  0  0  0  0  0  0999 V2000     
   20.5419   18.4164   26.5587 N   0  3  0  0  0  0  0  0  0  0  0  0
   20.5172   17.3916   26.4420 H   0  0  0  0  0  0  0  0  0  0  0  0
   20.0533   18.5946   27.4506 H   0  0  0  0  0  0  0  0  0  0  0  0
   19.7911   19.0928   25.4239 C   0  0  0  0  0  0  0  0  0  0  0  0
   19.8742   20.1737   25.5624 H   0  0  0  0  0  0  0  0  0  0  0  0
   18.7377   18.8184   25.5228 H   0  0  0  0  0  0  0  0  0  0  0  0
   20.2790   18.7057   24.0130 C   0  0  0  0  0  0  0  0  0  0  0  0
   21.3280   19.0040   23.8880 H   0  0  0  0  0  0  0  0  0  0  0  0
   20.2388   17.6142   23.9005 H   0  0  0  0  0  0  0  0  0  0  0  0
   19.4197   19.3735   22.9166 C   0  0  0  0  0  0  0  0  0  0  0  0
   19.4574   20.4653   23.0366 H   0  0  0  0  0  0  0  0  0  0  0  0
   18.3692   19.0763   23.0428 H   0  0  0  0  0  0  0  0  0  0  0  0
   19.8976   18.9926   21.4968 C   0  0  0  0  0  0  0  0  0  0  0  0
   20.9479   19.2901   21.3702 H   0  0  0  0  0  0  0  0  0  0  0  0
   19.8603   17.9010   21.3768 H   0  0  0  0  0  0  0  0  0  0  0  0
   19.0379   19.6606   20.4005 C   0  0  0  0  0  0  0  0  0  0  0  0
   19.0738   20.7531   20.5148 H   0  0  0  0  0  0  0  0  0  0  0  0
   17.9865   19.3640   20.5211 H   0  0  0  0  0  0  0  0  0  0  0  0
   19.5182   19.2782   18.9842 C   0  0  0  0  0  0  0  0  0  0  0  0
   20.5572   19.5932   18.8210 H   0  0  0  0  0  0  0  0  0  0  0  0
   18.8959   19.7617   18.2200 H   0  0  0  0  0  0  0  0  0  0  0  0
   19.4615   18.1931   18.8274 H   0  0  0  0  0  0  0  0  0  0  0  0
   21.9790   18.9178   26.6471 C   0  0  0  0  0  0  0  0  0  0  0  0
   21.9731   20.0007   26.7888 H   0  0  0  0  0  0  0  0  0  0  0  0
   22.4732   18.4378   27.4947 H   0  0  0  0  0  0  0  0  0  0  0  0
   22.5071   18.6673   25.7249 H   0  0  0  0  0  0  0  0  0  0  0  0
  1  2  1  0  0  0  0
  1  3  1  0  0  0  0
  1  4  1  0  0  0  0
  4  5  1  0  0  0  0
  4  6  1  0  0  0  0
  4  7  1  0  0  0  0
  7  8  1  0  0  0  0
  7  9  1  0  0  0  0
  7 10  1  0  0  0  0
 10 11  1  0  0  0  0
 10 12  1  0  0  0  0
 10 13  1  0  0  0  0
 13 14  1  0  0  0  0
 13 15  1  0  0  0  0
 13 16  1  0  0  0  0
 16 17  1  0  0  0  0
 16 18  1  0  0  0  0
 16 19  1  0  0  0  0
 19 20  1  0  0  0  0
 19 21  1  0  0  0  0
 19 22  1  0  0  0  0
  1 23  1  0  0  0  0
 23 24  1  0  0  0  0
 23 25  1  0  0  0  0
 23 26  1  0  0  0  0
M  END
> <VConfSearch Rank>
603

> <Conf_Id>
37

> <Delta U+W>
0.125

> <U+W>
21.967

> <U>
70.745

> <W>
-48.778

> <W(PB)>
-51.115

> <W(SA)>
2.337

> <Valence>
1.993

> <Coulomb>
68.323

> <VdW>
0.429

> <VdW6>
-5.973

> <VdW12>
6.403

> <Bond>
0.161

> <Angle>
0.472

> <Pdih>
1.360

> <Idih>
0.000

> <Tether>
0.000

$$$$
VeraChem MOL file


 26 25  0  0  0  0  0  0  0  0999 V2000     
   19.0676   20.5670   20.8106 N   0  3  0  0  0  0  0  0  0  0  0  0
   18.8277   21.5442   21.0394 H   0  0  0  0  0  0  0  0  0  0  0  0
   18.1642   20.0765   20.7208 H   0  0  0  0  0  0  0  0  0  0  0  0
   19.8866   19.9540   21.9286 C   0  0  0  0  0  0  0  0  0  0  0  0
   20.8269   20.5069   21.9974 H   0  0  0  0  0  0  0  0  0  0  0  0
   20.1127   18.9227   21.6478 H   0  0  0  0  0  0  0  0  0  0  0  0
   19.1698   19.9792   23.2924 C   0  0  0  0  0  0  0  0  0  0  0  0
   18.9071   21.0165   23.5391 H   0  0  0  0  0  0  0  0  0  0  0  0
   18.2251   19.4235   23.2241 H   0  0  0  0  0  0  0  0  0  0  0  0
   20.0344   19.3963   24.4355 C   0  0  0  0  0  0  0  0  0  0  0  0
   19.5021   19.5531   25.3826 H   0  0  0  0  0  0  0  0  0  0  0  0
   20.9739   19.9615   24.5089 H   0  0  0  0  0  0  0  0  0  0  0  0
   20.3434   17.8879   24.2560 C   0  0  0  0  0  0  0  0  0  0  0  0
   19.4038   17.3209   24.2032 H   0  0  0  0  0  0  0  0  0  0  0  0
   20.8543   17.7289   23.2972 H   0  0  0  0  0  0  0  0  0  0  0  0
   21.2356   17.3040   25.3785 C   0  0  0  0  0  0  0  0  0  0  0  0
   22.1822   17.8602   25.4285 H   0  0  0  0  0  0  0  0  0  0  0  0
   21.5010   16.2705   25.1150 H   0  0  0  0  0  0  0  0  0  0  0  0
   20.5583   17.3034   26.7680 C   0  0  0  0  0  0  0  0  0  0  0  0
   20.3864   18.3229   27.1345 H   0  0  0  0  0  0  0  0  0  0  0  0
   21.1924   16.7922   27.5039 H   0  0  0  0  0  0  0  0  0  0  0  0
   19.5933   16.7810   26.7371 H   0  0  0  0  0  0  0  0  0  0  0  0
   19.8442   20.5000   19.5028 C   0  0  0  0  0  0  0  0  0  0  0  0
   20.0572   19.4555   19.2647 H   0  0  0  0  0  0  0  0  0  0  0  0
   19.2434   20.9447   18.7063 H   0  0  0  0  0  0  0  0  0  0  0  0
   20.7797   21.0531   19.6118 H   0  0  0  0  0  0  0  0  0  0  0  0
  1  2  1  0  0  0  0
  1  3  1  0  0  0  0
  1  4  1  0  0  0  0
  4  5  1  0  0  0  0
  4  6  1  0  0  0  0
  4  7  1  0  0  0  0
  7  8  1  0  0  0  0
  7  9  1  0  0  0  0
  7 10  1  0  0  0  0
 10 11  1  0  0  0  0
 10 12  1  0  0  0  0
 10 13  1  0  0  0  0
 13 14  1  0  0  0  0
 13 15  1  0  0  0  0
 13 16  1  0  0  0  0
 16 17  1  0  0  0  0
 16 18  1  0  0  0  0
 16 19  1  0  0  0  0
 19 20  1  0  0  0  0
 19 21  1  0  0  0  0
 19 22  1  0  0  0  0
  1 23  1  0  0  0  0
 23 24  1  0  0  0  0
 23 25  1  0  0  0  0
 23 26  1  0  0  0  0
M  END
> <VConfSearch Rank>
604

> <Conf_Id>
137

> <Delta U+W>
1.038

> <U+W>
22.880

> <U>
71.810

> <W>
-48.930

> <W(PB)>
-51.257

> <W(SA)>
2.327

> <Valence>
2.568

> <Coulomb>
68.877

> <VdW>
0.364

> <VdW6>
-6.470

> <VdW12>
6.834

> <Bond>
0.191

> <Angle>
0.752

> <Pdih>
1.626

> <Idih>
0.000

> <Tether>
0.000

$$$$
VeraChem MOL file


 26 25  0  0  0  0  0  0  0  0999 V2000     
   19.1473   19.6154   20.5250 N   0  3  0  0  0  0  0  0  0  0  0  0
   18.2163   19.2931   20.8317 H   0  0  0  0  0  0  0  0  0  0  0  0
   19.6007   18.7877   20.1075 H   0  0  0  0  0  0  0  0  0  0  0  0
   19.9487   20.1066   21.7138 C   0  0  0  0  0  0  0  0  0  0  0  0
   19.4326   20.9752   22.1304 H   0  0  0  0  0  0  0  0  0  0  0  0
   20.9267   20.4298   21.3482 H   0  0  0  0  0  0  0  0  0  0  0  0
   20.1318   19.0392   22.8080 C   0  0  0  0  0  0  0  0  0  0  0  0
   19.1440   18.7092   23.1533 H   0  0  0  0  0  0  0  0  0  0  0  0
   20.6361   18.1621   22.3810 H   0  0  0  0  0  0  0  0  0  0  0  0
   20.9567   19.5872   23.9964 C   0  0  0  0  0  0  0  0  0  0  0  0
   20.4282   20.4346   24.4549 H   0  0  0  0  0  0  0  0  0  0  0  0
   21.9072   19.9869   23.6162 H   0  0  0  0  0  0  0  0  0  0  0  0
   21.2691   18.5236   25.0779 C   0  0  0  0  0  0  0  0  0  0  0  0
   21.8132   17.6843   24.6231 H   0  0  0  0  0  0  0  0  0  0  0  0
   21.9510   18.9681   25.8161 H   0  0  0  0  0  0  0  0  0  0  0  0
   20.0122   17.9954   25.8096 C   0  0  0  0  0  0  0  0  0  0  0  0
   19.3514   17.4762   25.1027 H   0  0  0  0  0  0  0  0  0  0  0  0
   19.4398   18.8388   26.2204 H   0  0  0  0  0  0  0  0  0  0  0  0
   20.3837   17.0252   26.9514 C   0  0  0  0  0  0  0  0  0  0  0  0
   20.9319   16.1551   26.5674 H   0  0  0  0  0  0  0  0  0  0  0  0
   19.4813   16.6582   27.4573 H   0  0  0  0  0  0  0  0  0  0  0  0
   21.0122   17.5210   27.7027 H   0  0  0  0  0  0  0  0  0  0  0  0
   19.0144   20.7281   19.4945 C   0  0  0  0  0  0  0  0  0  0  0  0
   20.0098   21.0294   19.1607 H   0  0  0  0  0  0  0  0  0  0  0  0
   18.4355   20.3614   18.6439 H   0  0  0  0  0  0  0  0  0  0  0  0
   18.5030   21.5795   19.9491 H   0  0  0  0  0  0  0  0  0  0  0  0
  1  2  1  0  0  0  0
  1  3  1  0  0  0  0
  1  4  1  0  0  0  0
  4  5  1  0  0  0  0
  4  6  1  0  0  0  0
  4  7  1  0  0  0  0
  7  8  1  0  0  0  0
  7  9  1  0  0  0  0
  7 10  1  0  0  0  0
 10 11  1  0  0  0  0
 10 12  1  0  0  0  0
 10 13  1  0  0  0  0
 13 14  1  0  0  0  0
 13 15  1  0  0  0  0
 13 16  1  0  0  0  0
 16 17  1  0  0  0  0
 16 18  1  0  0  0  0
 16 19  1  0  0  0  0
 19 20  1  0  0  0  0
 19 21  1  0  0  0  0
 19 22  1  0  0  0  0
  1 23  1  0  0  0  0
 23 24  1  0  0  0  0
 23 25  1  0  0  0  0
 23 26  1  0  0  0  0
M  END
> <VConfSearch Rank>
605

> <Conf_Id>
35

> <Delta U+W>
0.670

> <U+W>
22.512

> <U>
71.348

> <W>
-48.837

> <W(PB)>
-51.150

> <W(SA)>
2.313

> <Valence>
2.262

> <Coulomb>
68.807

> <VdW>
0.280

> <VdW6>
-5.915

> <VdW12>
6.195

> <Bond>
0.164

> <Angle>
0.622

> <Pdih>
1.475

> <Idih>
0.000

> <Tether>
0.000

$$$$
VeraChem MOL file


 26 25  0  0  0  0  0  0  0  0999 V2000     
   19.7488   17.6018   25.8694 N   0  3  0  0  0  0  0  0  0  0  0  0
   19.8215   16.6606   25.4527 H   0  0  0  0  0  0  0  0  0  0  0  0
   18.7455   17.8404   25.8357 H   0  0  0  0  0  0  0  0  0  0  0  0
   20.5510   18.5973   25.0556 C   0  0  0  0  0  0  0  0  0  0  0  0
   21.6027   18.3051   25.1107 H   0  0  0  0  0  0  0  0  0  0  0  0
   20.4414   19.5788   25.5237 H   0  0  0  0  0  0  0  0  0  0  0  0
   20.1113   18.6744   23.5822 C   0  0  0  0  0  0  0  0  0  0  0  0
   20.2077   17.6826   23.1206 H   0  0  0  0  0  0  0  0  0  0  0  0
   19.0501   18.9499   23.5405 H   0  0  0  0  0  0  0  0  0  0  0  0
   20.9601   19.7003   22.7946 C   0  0  0  0  0  0  0  0  0  0  0  0
   22.0237   19.4526   22.9180 H   0  0  0  0  0  0  0  0  0  0  0  0
   20.8255   20.7019   23.2261 H   0  0  0  0  0  0  0  0  0  0  0  0
   20.6380   19.7399   21.2802 C   0  0  0  0  0  0  0  0  0  0  0  0
   21.3623   20.4036   20.7878 H   0  0  0  0  0  0  0  0  0  0  0  0
   20.7898   18.7425   20.8449 H   0  0  0  0  0  0  0  0  0  0  0  0
   19.2068   20.2352   20.9633 C   0  0  0  0  0  0  0  0  0  0  0  0
   19.0366   21.2097   21.4420 H   0  0  0  0  0  0  0  0  0  0  0  0
   18.4641   19.5417   21.3796 H   0  0  0  0  0  0  0  0  0  0  0  0
   18.9727   20.3647   19.4429 C   0  0  0  0  0  0  0  0  0  0  0  0
   19.6715   21.0833   18.9951 H   0  0  0  0  0  0  0  0  0  0  0  0
   17.9528   20.7139   19.2360 H   0  0  0  0  0  0  0  0  0  0  0  0
   19.1065   19.3985   18.9393 H   0  0  0  0  0  0  0  0  0  0  0  0
   20.2464   17.5885   27.3082 C   0  0  0  0  0  0  0  0  0  0  0  0
   20.1290   18.5857   27.7381 H   0  0  0  0  0  0  0  0  0  0  0  0
   19.6607   16.8677   27.8831 H   0  0  0  0  0  0  0  0  0  0  0  0
   21.3001   17.3015   27.3212 H   0  0  0  0  0  0  0  0  0  0  0  0
  1  2  1  0  0  0  0
  1  3  1  0  0  0  0
  1  4  1  0  0  0  0
  4  5  1  0  0  0  0
  4  6  1  0  0  0  0
  4  7  1  0  0  0  0
  7  8  1  0  0  0  0
  7  9  1  0  0  0  0
  7 10  1  0  0  0  0
 10 11  1  0  0  0  0
 10 12  1  0  0  0  0
 10 13  1  0  0  0  0
 13 14  1  0  0  0  0
 13 15  1  0  0  0  0
 13 16  1  0  0  0  0
 16 17  1  0  0  0  0
 16 18  1  0  0  0  0
 16 19  1  0  0  0  0
 19 20  1  0  0  0  0
 19 21  1  0  0  0  0
 19 22  1  0  0  0  0
  1 23  1  0  0  0  0
 23 24  1  0  0  0  0
 23 25  1  0  0  0  0
 23 26  1  0  0  0  0
M  END
> <VConfSearch Rank>
606

> <Conf_Id>
36

> <Delta U+W>
0.662

> <U+W>
22.504

> <U>
71.348

> <W>
-48.844

> <W(PB)>
-51.157

> <W(SA)>
2.313

> <Valence>
2.262

> <Coulomb>
68.807

> <VdW>
0.280

> <VdW6>
-5.916

> <VdW12>
6.195

> <Bond>
0.164

> <Angle>
0.622

> <Pdih>
1.475

> <Idih>
0.000

> <Tether>
0.000

$$$$
VeraChem MOL file


 26 25  0  0  0  0  0  0  0  0999 V2000     
   22.1392   17.0974   22.2335 N   0  3  0  0  0  0  0  0  0  0  0  0
   22.9710   17.7019   22.3205 H   0  0  0  0  0  0  0  0  0  0  0  0
   22.0776   16.8581   21.2316 H   0  0  0  0  0  0  0  0  0  0  0  0
   20.8980   17.8499   22.6688 C   0  0  0  0  0  0  0  0  0  0  0  0
   21.0076   18.0868   23.7297 H   0  0  0  0  0  0  0  0  0  0  0  0
   20.0418   17.1808   22.5514 H   0  0  0  0  0  0  0  0  0  0  0  0
   20.6581   19.1439   21.8673 C   0  0  0  0  0  0  0  0  0  0  0  0
   21.5191   19.8154   21.9838 H   0  0  0  0  0  0  0  0  0  0  0  0
   20.5937   18.8976   20.7991 H   0  0  0  0  0  0  0  0  0  0  0  0
   19.3646   19.8786   22.2919 C   0  0  0  0  0  0  0  0  0  0  0  0
   18.5016   19.2136   22.1482 H   0  0  0  0  0  0  0  0  0  0  0  0
   19.2105   20.7359   21.6219 H   0  0  0  0  0  0  0  0  0  0  0  0
   19.4014   20.3777   23.7566 C   0  0  0  0  0  0  0  0  0  0  0  0
   19.5055   19.5254   24.4414 H   0  0  0  0  0  0  0  0  0  0  0  0
   20.2838   21.0152   23.9054 H   0  0  0  0  0  0  0  0  0  0  0  0
   18.1272   21.1700   24.1253 C   0  0  0  0  0  0  0  0  0  0  0  0
   17.2409   20.5371   23.9775 H   0  0  0  0  0  0  0  0  0  0  0  0
   18.0172   22.0312   23.4513 H   0  0  0  0  0  0  0  0  0  0  0  0
   18.1642   21.6658   25.5867 C   0  0  0  0  0  0  0  0  0  0  0  0
   18.2385   20.8242   26.2876 H   0  0  0  0  0  0  0  0  0  0  0  0
   17.2520   22.2262   25.8292 H   0  0  0  0  0  0  0  0  0  0  0  0
   19.0221   22.3293   25.7571 H   0  0  0  0  0  0  0  0  0  0  0  0
   22.3033   15.8388   23.0741 C   0  0  0  0  0  0  0  0  0  0  0  0
   21.4271   15.2006   22.9401 H   0  0  0  0  0  0  0  0  0  0  0  0
   23.2004   15.3063   22.7504 H   0  0  0  0  0  0  0  0  0  0  0  0
   22.4000   16.1190   24.1253 H   0  0  0  0  0  0  0  0  0  0  0  0
  1  2  1  0  0  0  0
  1  3  1  0  0  0  0
  1  4  1  0  0  0  0
  4  5  1  0  0  0  0
  4  6  1  0  0  0  0
  4  7  1  0  0  0  0
  7  8  1  0  0  0  0
  7  9  1  0  0  0  0
  7 10  1  0  0  0  0
 10 11  1  0  0  0  0
 10 12  1  0  0  0  0
 10 13  1  0  0  0  0
 13 14  1  0  0  0  0
 13 15  1  0  0  0  0
 13 16  1  0  0  0  0
 16 17  1  0  0  0  0
 16 18  1  0  0  0  0
 16 19  1  0  0  0  0
 19 20  1  0  0  0  0
 19 21  1  0  0  0  0
 19 22  1  0  0  0  0
  1 23  1  0  0  0  0
 23 24  1  0  0  0  0
 23 25  1  0  0  0  0
 23 26  1  0  0  0  0
M  END
> <VConfSearch Rank>
607

> <Conf_Id>
46

> <Delta U+W>
0.496

> <U+W>
22.338

> <U>
71.138

> <W>
-48.799

> <W(PB)>
-51.136

> <W(SA)>
2.337

> <Valence>
2.016

> <Coulomb>
68.932

> <VdW>
0.190

> <VdW6>
-5.902

> <VdW12>
6.092

> <Bond>
0.149

> <Angle>
0.477

> <Pdih>
1.390

> <Idih>
0.000

> <Tether>
0.000

$$$$
VeraChem MOL file


 26 25  0  0  0  0  0  0  0  0999 V2000     
   21.4292   21.0343   21.4999 N   0  3  0  0  0  0  0  0  0  0  0  0
   21.7789   21.8984   21.9425 H   0  0  0  0  0  0  0  0  0  0  0  0
   20.6121   21.3239   20.9403 H   0  0  0  0  0  0  0  0  0  0  0  0
   21.0097   20.0365   22.5605 C   0  0  0  0  0  0  0  0  0  0  0  0
   21.8984   19.7648   23.1356 H   0  0  0  0  0  0  0  0  0  0  0  0
   20.6428   19.1430   22.0498 H   0  0  0  0  0  0  0  0  0  0  0  0
   19.9235   20.5777   23.5100 C   0  0  0  0  0  0  0  0  0  0  0  0
   20.2874   21.4993   23.9833 H   0  0  0  0  0  0  0  0  0  0  0  0
   19.0311   20.8524   22.9319 H   0  0  0  0  0  0  0  0  0  0  0  0
   19.5364   19.5655   24.6139 C   0  0  0  0  0  0  0  0  0  0  0  0
   18.8299   20.0489   25.3029 H   0  0  0  0  0  0  0  0  0  0  0  0
   20.4259   19.3135   25.2081 H   0  0  0  0  0  0  0  0  0  0  0  0
   18.8974   18.2710   24.0554 C   0  0  0  0  0  0  0  0  0  0  0  0
   18.0281   18.5288   23.4346 H   0  0  0  0  0  0  0  0  0  0  0  0
   19.6114   17.7509   23.4028 H   0  0  0  0  0  0  0  0  0  0  0  0
   18.4559   17.3147   25.1857 C   0  0  0  0  0  0  0  0  0  0  0  0
   17.7339   17.8222   25.8409 H   0  0  0  0  0  0  0  0  0  0  0  0
   19.3217   17.0541   25.8106 H   0  0  0  0  0  0  0  0  0  0  0  0
   17.8203   16.0235   24.6275 C   0  0  0  0  0  0  0  0  0  0  0  0
   16.9308   16.2496   24.0251 H   0  0  0  0  0  0  0  0  0  0  0  0
   17.5131   15.3580   25.4447 H   0  0  0  0  0  0  0  0  0  0  0  0
   18.5307   15.4747   23.9956 H   0  0  0  0  0  0  0  0  0  0  0  0
   22.4986   20.4214   20.6063 C   0  0  0  0  0  0  0  0  0  0  0  0
   22.7919   21.1502   19.8473 H   0  0  0  0  0  0  0  0  0  0  0  0
   23.3651   20.1537   21.2149 H   0  0  0  0  0  0  0  0  0  0  0  0
   22.0950   19.5285   20.1238 H   0  0  0  0  0  0  0  0  0  0  0  0
  1  2  1  0  0  0  0
  1  3  1  0  0  0  0
  1  4  1  0  0  0  0
  4  5  1  0  0  0  0
  4  6  1  0  0  0  0
  4  7  1  0  0  0  0
  7  8  1  0  0  0  0
  7  9  1  0  0  0  0
  7 10  1  0  0  0  0
 10 11  1  0  0  0  0
 10 12  1  0  0  0  0
 10 13  1  0  0  0  0
 13 14  1  0  0  0  0
 13 15  1  0  0  0  0
 13 16  1  0  0  0  0
 16 17  1  0  0  0  0
 16 18  1  0  0  0  0
 16 19  1  0  0  0  0
 19 20  1  0  0  0  0
 19 21  1  0  0  0  0
 19 22  1  0  0  0  0
  1 23  1  0  0  0  0
 23 24  1  0  0  0  0
 23 25  1  0  0  0  0
 23 26  1  0  0  0  0
M  END
> <VConfSearch Rank>
608

> <Conf_Id>
45

> <Delta U+W>
0.471

> <U+W>
22.313

> <U>
71.138

> <W>
-48.825

> <W(PB)>
-51.169

> <W(SA)>
2.344

> <Valence>
2.016

> <Coulomb>
68.932

> <VdW>
0.190

> <VdW6>
-5.902

> <VdW12>
6.092

> <Bond>
0.149

> <Angle>
0.477

> <Pdih>
1.390

> <Idih>
0.000

> <Tether>
0.000

$$$$
VeraChem MOL file


 26 25  0  0  0  0  0  0  0  0999 V2000     
   22.1757   20.3328   22.3833 N   0  3  0  0  0  0  0  0  0  0  0  0
   21.5521   20.1341   21.5866 H   0  0  0  0  0  0  0  0  0  0  0  0
   22.6876   19.4544   22.5598 H   0  0  0  0  0  0  0  0  0  0  0  0
   21.3578   20.7140   23.6021 C   0  0  0  0  0  0  0  0  0  0  0  0
   20.8248   21.6405   23.3742 H   0  0  0  0  0  0  0  0  0  0  0  0
   22.0561   20.9141   24.4187 H   0  0  0  0  0  0  0  0  0  0  0  0
   20.3522   19.6321   24.0426 C   0  0  0  0  0  0  0  0  0  0  0  0
   20.8973   18.7074   24.2706 H   0  0  0  0  0  0  0  0  0  0  0  0
   19.8798   19.9582   24.9787 H   0  0  0  0  0  0  0  0  0  0  0  0
   19.2569   19.3692   22.9788 C   0  0  0  0  0  0  0  0  0  0  0  0
   19.7077   18.9565   22.0664 H   0  0  0  0  0  0  0  0  0  0  0  0
   18.8004   20.3270   22.6928 H   0  0  0  0  0  0  0  0  0  0  0  0
   18.1366   18.4190   23.4689 C   0  0  0  0  0  0  0  0  0  0  0  0
   17.6648   18.8382   24.3684 H   0  0  0  0  0  0  0  0  0  0  0  0
   17.3522   18.3797   22.7004 H   0  0  0  0  0  0  0  0  0  0  0  0
   18.6280   16.9810   23.7596 C   0  0  0  0  0  0  0  0  0  0  0  0
   19.3588   16.9881   24.5792 H   0  0  0  0  0  0  0  0  0  0  0  0
   19.1437   16.5790   22.8763 H   0  0  0  0  0  0  0  0  0  0  0  0
   17.4599   16.0458   24.1390 C   0  0  0  0  0  0  0  0  0  0  0  0
   16.9424   16.4055   25.0379 H   0  0  0  0  0  0  0  0  0  0  0  0
   17.8262   15.0316   24.3445 H   0  0  0  0  0  0  0  0  0  0  0  0
   16.7259   15.9798   23.3254 H   0  0  0  0  0  0  0  0  0  0  0  0
   23.1436   21.4555   22.0365 C   0  0  0  0  0  0  0  0  0  0  0  0
   23.8132   21.6263   22.8823 H   0  0  0  0  0  0  0  0  0  0  0  0
   23.7253   21.1684   21.1577 H   0  0  0  0  0  0  0  0  0  0  0  0
   22.5773   22.3647   21.8232 H   0  0  0  0  0  0  0  0  0  0  0  0
  1  2  1  0  0  0  0
  1  3  1  0  0  0  0
  1  4  1  0  0  0  0
  4  5  1  0  0  0  0
  4  6  1  0  0  0  0
  4  7  1  0  0  0  0
  7  8  1  0  0  0  0
  7  9  1  0  0  0  0
  7 10  1  0  0  0  0
 10 11  1  0  0  0  0
 10 12  1  0  0  0  0
 10 13  1  0  0  0  0
 13 14  1  0  0  0  0
 13 15  1  0  0  0  0
 13 16  1  0  0  0  0
 16 17  1  0  0  0  0
 16 18  1  0  0  0  0
 16 19  1  0  0  0  0
 19 20  1  0  0  0  0
 19 21  1  0  0  0  0
 19 22  1  0  0  0  0
  1 23  1  0  0  0  0
 23 24  1  0  0  0  0
 23 25  1  0  0  0  0
 23 26  1  0  0  0  0
M  END
> <VConfSearch Rank>
609

> <Conf_Id>
143

> <Delta U+W>
0.915

> <U+W>
22.757

> <U>
71.994

> <W>
-49.237

> <W(PB)>
-51.537

> <W(SA)>
2.300

> <Valence>
2.376

> <Coulomb>
69.315

> <VdW>
0.303

> <VdW6>
-6.508

> <VdW12>
6.810

> <Bond>
0.182

> <Angle>
0.660

> <Pdih>
1.534

> <Idih>
0.000

> <Tether>
0.000

$$$$
VeraChem MOL file


 26 25  0  0  0  0  0  0  0  0999 V2000     
   22.3142   18.6210   24.4792 N   0  3  0  0  0  0  0  0  0  0  0  0
   22.5903   18.5165   23.4914 H   0  0  0  0  0  0  0  0  0  0  0  0
   22.0378   17.6768   24.7903 H   0  0  0  0  0  0  0  0  0  0  0  0
   21.1392   19.5730   24.5948 C   0  0  0  0  0  0  0  0  0  0  0  0
   21.4656   20.5568   24.2484 H   0  0  0  0  0  0  0  0  0  0  0  0
   20.8843   19.6520   25.6547 H   0  0  0  0  0  0  0  0  0  0  0  0
   19.8926   19.1311   23.8028 C   0  0  0  0  0  0  0  0  0  0  0  0
   19.5844   18.1297   24.1314 H   0  0  0  0  0  0  0  0  0  0  0  0
   19.0750   19.8169   24.0561 H   0  0  0  0  0  0  0  0  0  0  0  0
   20.1202   19.1451   22.2714 C   0  0  0  0  0  0  0  0  0  0  0  0
   21.0044   18.5421   22.0271 H   0  0  0  0  0  0  0  0  0  0  0  0
   20.3504   20.1696   21.9474 H   0  0  0  0  0  0  0  0  0  0  0  0
   18.9283   18.5993   21.4428 C   0  0  0  0  0  0  0  0  0  0  0  0
   19.2252   18.6196   20.3850 H   0  0  0  0  0  0  0  0  0  0  0  0
   18.7566   17.5403   21.6801 H   0  0  0  0  0  0  0  0  0  0  0  0
   17.6095   19.4021   21.5882 C   0  0  0  0  0  0  0  0  0  0  0  0
   17.0948   19.4083   20.6171 H   0  0  0  0  0  0  0  0  0  0  0  0
   17.8257   20.4541   21.8211 H   0  0  0  0  0  0  0  0  0  0  0  0
   16.6403   18.8067   22.6363 C   0  0  0  0  0  0  0  0  0  0  0  0
   17.0782   18.7866   23.6402 H   0  0  0  0  0  0  0  0  0  0  0  0
   16.3591   17.7794   22.3705 H   0  0  0  0  0  0  0  0  0  0  0  0
   15.7185   19.4005   22.6878 H   0  0  0  0  0  0  0  0  0  0  0  0
   23.4824   19.1366   25.3080 C   0  0  0  0  0  0  0  0  0  0  0  0
   23.1765   19.2085   26.3540 H   0  0  0  0  0  0  0  0  0  0  0  0
   24.3209   18.4427   25.2158 H   0  0  0  0  0  0  0  0  0  0  0  0
   23.7767   20.1219   24.9398 H   0  0  0  0  0  0  0  0  0  0  0  0
  1  2  1  0  0  0  0
  1  3  1  0  0  0  0
  1  4  1  0  0  0  0
  4  5  1  0  0  0  0
  4  6  1  0  0  0  0
  4  7  1  0  0  0  0
  7  8  1  0  0  0  0
  7  9  1  0  0  0  0
  7 10  1  0  0  0  0
 10 11  1  0  0  0  0
 10 12  1  0  0  0  0
 10 13  1  0  0  0  0
 13 14  1  0  0  0  0
 13 15  1  0  0  0  0
 13 16  1  0  0  0  0
 16 17  1  0  0  0  0
 16 18  1  0  0  0  0
 16 19  1  0  0  0  0
 19 20  1  0  0  0  0
 19 21  1  0  0  0  0
 19 22  1  0  0  0  0
  1 23  1  0  0  0  0
 23 24  1  0  0  0  0
 23 25  1  0  0  0  0
 23 26  1  0  0  0  0
M  END
> <VConfSearch Rank>
610

> <Conf_Id>
76

> <Delta U+W>
3.468

> <U+W>
25.310

> <U>
74.594

> <W>
-49.283

> <W(PB)>
-51.537

> <W(SA)>
2.253

> <Valence>
4.886

> <Coulomb>
69.332

> <VdW>
0.376

> <VdW6>
-7.329

> <VdW12>
7.705

> <Bond>
0.232

> <Angle>
1.251

> <Pdih>
3.403

> <Idih>
0.000

> <Tether>
0.000

$$$$
VeraChem MOL file


 26 25  0  0  0  0  0  0  0  0999 V2000     
   21.8692   17.2411   24.4680 N   0  3  0  0  0  0  0  0  0  0  0  0
   21.3554   16.5456   23.9049 H   0  0  0  0  0  0  0  0  0  0  0  0
   21.4930   17.1520   25.4247 H   0  0  0  0  0  0  0  0  0  0  0  0
   21.6157   18.6368   23.9344 C   0  0  0  0  0  0  0  0  0  0  0  0
   22.0210   18.6868   22.9206 H   0  0  0  0  0  0  0  0  0  0  0  0
   22.1685   19.3409   24.5613 H   0  0  0  0  0  0  0  0  0  0  0  0
   20.1250   19.0203   23.9153 C   0  0  0  0  0  0  0  0  0  0  0  0
   19.5745   18.2950   23.3058 H   0  0  0  0  0  0  0  0  0  0  0  0
   19.7200   18.9516   24.9337 H   0  0  0  0  0  0  0  0  0  0  0  0
   19.9198   20.4554   23.3734 C   0  0  0  0  0  0  0  0  0  0  0  0
   20.3720   20.5572   22.3770 H   0  0  0  0  0  0  0  0  0  0  0  0
   20.4681   21.1482   24.0270 H   0  0  0  0  0  0  0  0  0  0  0  0
   18.4326   20.8945   23.3306 C   0  0  0  0  0  0  0  0  0  0  0  0
   17.8639   20.3951   24.1270 H   0  0  0  0  0  0  0  0  0  0  0  0
   18.3862   21.9675   23.5632 H   0  0  0  0  0  0  0  0  0  0  0  0
   17.7323   20.6843   21.9635 C   0  0  0  0  0  0  0  0  0  0  0  0
   18.2471   21.2729   21.1913 H   0  0  0  0  0  0  0  0  0  0  0  0
   16.7140   21.0928   22.0277 H   0  0  0  0  0  0  0  0  0  0  0  0
   17.6460   19.2102   21.5109 C   0  0  0  0  0  0  0  0  0  0  0  0
   17.1958   18.5816   22.2900 H   0  0  0  0  0  0  0  0  0  0  0  0
   18.6374   18.8096   21.2662 H   0  0  0  0  0  0  0  0  0  0  0  0
   17.0264   19.1219   20.6091 H   0  0  0  0  0  0  0  0  0  0  0  0
   23.3622   16.9436   24.4516 C   0  0  0  0  0  0  0  0  0  0  0  0
   23.7306   17.0114   23.4256 H   0  0  0  0  0  0  0  0  0  0  0  0
   23.8804   17.6713   25.0799 H   0  0  0  0  0  0  0  0  0  0  0  0
   23.5309   15.9360   24.8383 H   0  0  0  0  0  0  0  0  0  0  0  0
  1  2  1  0  0  0  0
  1  3  1  0  0  0  0
  1  4  1  0  0  0  0
  4  5  1  0  0  0  0
  4  6  1  0  0  0  0
  4  7  1  0  0  0  0
  7  8  1  0  0  0  0
  7  9  1  0  0  0  0
  7 10  1  0  0  0  0
 10 11  1  0  0  0  0
 10 12  1  0  0  0  0
 10 13  1  0  0  0  0
 13 14  1  0  0  0  0
 13 15  1  0  0  0  0
 13 16  1  0  0  0  0
 16 17  1  0  0  0  0
 16 18  1  0  0  0  0
 16 19  1  0  0  0  0
 19 20  1  0  0  0  0
 19 21  1  0  0  0  0
 19 22  1  0  0  0  0
  1 23  1  0  0  0  0
 23 24  1  0  0  0  0
 23 25  1  0  0  0  0
 23 26  1  0  0  0  0
M  END
> <VConfSearch Rank>
611

> <Conf_Id>
123

> <Delta U+W>
3.101

> <U+W>
24.943

> <U>
74.070

> <W>
-49.127

> <W(PB)>
-51.421

> <W(SA)>
2.295

> <Valence>
4.690

> <Coulomb>
69.115

> <VdW>
0.266

> <VdW6>
-6.809

> <VdW12>
7.075

> <Bond>
0.212

> <Angle>
1.133

> <Pdih>
3.345

> <Idih>
0.000

> <Tether>
0.000

$$$$
VeraChem MOL file


 26 25  0  0  0  0  0  0  0  0999 V2000     
   21.5462   17.5324   24.8616 N   0  3  0  0  0  0  0  0  0  0  0  0
   20.8936   17.2880   25.6225 H   0  0  0  0  0  0  0  0  0  0  0  0
   21.8851   18.4809   25.0820 H   0  0  0  0  0  0  0  0  0  0  0  0
   20.8185   17.5355   23.5310 C   0  0  0  0  0  0  0  0  0  0  0  0
   20.4792   16.5144   23.3390 H   0  0  0  0  0  0  0  0  0  0  0  0
   21.5372   17.8079   22.7541 H   0  0  0  0  0  0  0  0  0  0  0  0
   19.6114   18.4927   23.4790 C   0  0  0  0  0  0  0  0  0  0  0  0
   19.0939   18.3390   22.5255 H   0  0  0  0  0  0  0  0  0  0  0  0
   18.8950   18.2190   24.2648 H   0  0  0  0  0  0  0  0  0  0  0  0
   20.0212   19.9797   23.6338 C   0  0  0  0  0  0  0  0  0  0  0  0
   20.8095   20.2364   22.9126 H   0  0  0  0  0  0  0  0  0  0  0  0
   20.4626   20.1187   24.6297 H   0  0  0  0  0  0  0  0  0  0  0  0
   18.8306   20.9639   23.4919 C   0  0  0  0  0  0  0  0  0  0  0  0
   17.8977   20.4846   23.8194 H   0  0  0  0  0  0  0  0  0  0  0  0
   18.9926   21.7997   24.1867 H   0  0  0  0  0  0  0  0  0  0  0  0
   18.6520   21.5654   22.0742 C   0  0  0  0  0  0  0  0  0  0  0  0
   19.5531   22.1305   21.7977 H   0  0  0  0  0  0  0  0  0  0  0  0
   17.8330   22.2974   22.1069 H   0  0  0  0  0  0  0  0  0  0  0  0
   18.3425   20.5255   20.9750 C   0  0  0  0  0  0  0  0  0  0  0  0
   17.4799   19.9042   21.2485 H   0  0  0  0  0  0  0  0  0  0  0  0
   19.2027   19.8699   20.7924 H   0  0  0  0  0  0  0  0  0  0  0  0
   18.1071   21.0276   20.0277 H   0  0  0  0  0  0  0  0  0  0  0  0
   22.7068   16.5484   24.8154 C   0  0  0  0  0  0  0  0  0  0  0  0
   23.3987   16.8459   24.0245 H   0  0  0  0  0  0  0  0  0  0  0  0
   23.2219   16.5565   25.7786 H   0  0  0  0  0  0  0  0  0  0  0  0
   22.3207   15.5471   24.6121 H   0  0  0  0  0  0  0  0  0  0  0  0
  1  2  1  0  0  0  0
  1  3  1  0  0  0  0
  1  4  1  0  0  0  0
  4  5  1  0  0  0  0
  4  6  1  0  0  0  0
  4  7  1  0  0  0  0
  7  8  1  0  0  0  0
  7  9  1  0  0  0  0
  7 10  1  0  0  0  0
 10 11  1  0  0  0  0
 10 12  1  0  0  0  0
 10 13  1  0  0  0  0
 13 14  1  0  0  0  0
 13 15  1  0  0  0  0
 13 16  1  0  0  0  0
 16 17  1  0  0  0  0
 16 18  1  0  0  0  0
 16 19  1  0  0  0  0
 19 20  1  0  0  0  0
 19 21  1  0  0  0  0
 19 22  1  0  0  0  0
  1 23  1  0  0  0  0
 23 24  1  0  0  0  0
 23 25  1  0  0  0  0
 23 26  1  0  0  0  0
M  END
> <VConfSearch Rank>
612

> <Conf_Id>
111

> <Delta U+W>
3.383

> <U+W>
25.225

> <U>
74.516

> <W>
-49.292

> <W(PB)>
-51.558

> <W(SA)>
2.266

> <Valence>
4.842

> <Coulomb>
69.333

> <VdW>
0.342

> <VdW6>
-7.369

> <VdW12>
7.711

> <Bond>
0.232

> <Angle>
1.153

> <Pdih>
3.457

> <Idih>
0.000

> <Tether>
0.000

$$$$
VeraChem MOL file


 26 25  0  0  0  0  0  0  0  0999 V2000     
   17.6869   18.6106   23.2332 N   0  3  0  0  0  0  0  0  0  0  0  0
   17.4439   17.6362   23.4700 H   0  0  0  0  0  0  0  0  0  0  0  0
   18.3026   18.5501   22.4084 H   0  0  0  0  0  0  0  0  0  0  0  0
   18.4287   19.2579   24.3863 C   0  0  0  0  0  0  0  0  0  0  0  0
   17.7476   19.2923   25.2404 H   0  0  0  0  0  0  0  0  0  0  0  0
   18.6649   20.2854   24.1002 H   0  0  0  0  0  0  0  0  0  0  0  0
   19.7206   18.5182   24.7914 C   0  0  0  0  0  0  0  0  0  0  0  0
   20.1609   19.0287   25.6581 H   0  0  0  0  0  0  0  0  0  0  0  0
   19.4624   17.5066   25.1319 H   0  0  0  0  0  0  0  0  0  0  0  0
   20.7788   18.4234   23.6630 C   0  0  0  0  0  0  0  0  0  0  0  0
   20.3800   17.8385   22.8236 H   0  0  0  0  0  0  0  0  0  0  0  0
   21.6365   17.8572   24.0487 H   0  0  0  0  0  0  0  0  0  0  0  0
   21.2573   19.8082   23.1568 C   0  0  0  0  0  0  0  0  0  0  0  0
   20.3970   20.3848   22.7924 H   0  0  0  0  0  0  0  0  0  0  0  0
   21.6817   20.3815   23.9925 H   0  0  0  0  0  0  0  0  0  0  0  0
   22.2955   19.7206   22.0116 C   0  0  0  0  0  0  0  0  0  0  0  0
   22.4916   20.7349   21.6366 H   0  0  0  0  0  0  0  0  0  0  0  0
   21.8722   19.1583   21.1676 H   0  0  0  0  0  0  0  0  0  0  0  0
   23.6365   19.0830   22.4415 C   0  0  0  0  0  0  0  0  0  0  0  0
   23.5150   18.0254   22.7059 H   0  0  0  0  0  0  0  0  0  0  0  0
   24.0644   19.6074   23.3057 H   0  0  0  0  0  0  0  0  0  0  0  0
   24.3661   19.1354   21.6230 H   0  0  0  0  0  0  0  0  0  0  0  0
   16.4340   19.4114   22.9074 C   0  0  0  0  0  0  0  0  0  0  0  0
   15.9106   18.9351   22.0754 H   0  0  0  0  0  0  0  0  0  0  0  0
   15.7852   19.4358   23.7857 H   0  0  0  0  0  0  0  0  0  0  0  0
   16.7197   20.4284   22.6299 H   0  0  0  0  0  0  0  0  0  0  0  0
  1  2  1  0  0  0  0
  1  3  1  0  0  0  0
  1  4  1  0  0  0  0
  4  5  1  0  0  0  0
  4  6  1  0  0  0  0
  4  7  1  0  0  0  0
  7  8  1  0  0  0  0
  7  9  1  0  0  0  0
  7 10  1  0  0  0  0
 10 11  1  0  0  0  0
 10 12  1  0  0  0  0
 10 13  1  0  0  0  0
 13 14  1  0  0  0  0
 13 15  1  0  0  0  0
 13 16  1  0  0  0  0
 16 17  1  0  0  0  0
 16 18  1  0  0  0  0
 16 19  1  0  0  0  0
 19 20  1  0  0  0  0
 19 21  1  0  0  0  0
 19 22  1  0  0  0  0
  1 23  1  0  0  0  0
 23 24  1  0  0  0  0
 23 25  1  0  0  0  0
 23 26  1  0  0  0  0
M  END
> <VConfSearch Rank>
613

> <Conf_Id>
126

> <Delta U+W>
1.519

> <U+W>
23.361

> <U>
72.579

> <W>
-49.218

> <W(PB)>
-51.496

> <W(SA)>
2.279

> <Valence>
2.678

> <Coulomb>
69.622

> <VdW>
0.279

> <VdW6>
-7.328

> <VdW12>
7.608

> <Bond>
0.212

> <Angle>
0.911

> <Pdih>
1.555

> <Idih>
0.000

> <Tether>
0.000

$$$$
VeraChem MOL file


 26 25  0  0  0  0  0  0  0  0999 V2000     
   17.7120   19.4889   23.6004 N   0  3  0  0  0  0  0  0  0  0  0  0
   18.4458   20.1257   23.9456 H   0  0  0  0  0  0  0  0  0  0  0  0
   17.3099   19.0472   24.4417 H   0  0  0  0  0  0  0  0  0  0  0  0
   18.3240   18.4341   22.6996 C   0  0  0  0  0  0  0  0  0  0  0  0
   18.7346   18.9381   21.8216 H   0  0  0  0  0  0  0  0  0  0  0  0
   17.5180   17.7756   22.3660 H   0  0  0  0  0  0  0  0  0  0  0  0
   19.4233   17.5928   23.3808 C   0  0  0  0  0  0  0  0  0  0  0  0
   18.9841   17.0462   24.2259 H   0  0  0  0  0  0  0  0  0  0  0  0
   19.7719   16.8298   22.6721 H   0  0  0  0  0  0  0  0  0  0  0  0
   20.6366   18.4177   23.8804 C   0  0  0  0  0  0  0  0  0  0  0  0
   21.3370   17.7287   24.3700 H   0  0  0  0  0  0  0  0  0  0  0  0
   20.3145   19.1263   24.6548 H   0  0  0  0  0  0  0  0  0  0  0  0
   21.3670   19.1785   22.7444 C   0  0  0  0  0  0  0  0  0  0  0  0
   21.7135   18.4650   21.9841 H   0  0  0  0  0  0  0  0  0  0  0  0
   20.6617   19.8506   22.2381 H   0  0  0  0  0  0  0  0  0  0  0  0
   22.5643   20.0254   23.2406 C   0  0  0  0  0  0  0  0  0  0  0  0
   22.2217   20.7496   23.9928 H   0  0  0  0  0  0  0  0  0  0  0  0
   22.9492   20.6173   22.3984 H   0  0  0  0  0  0  0  0  0  0  0  0
   23.7203   19.1793   23.8215 C   0  0  0  0  0  0  0  0  0  0  0  0
   24.0591   18.4247   23.0999 H   0  0  0  0  0  0  0  0  0  0  0  0
   23.4214   18.6648   24.7430 H   0  0  0  0  0  0  0  0  0  0  0  0
   24.5786   19.8186   24.0656 H   0  0  0  0  0  0  0  0  0  0  0  0
   16.6451   20.2646   22.8406 C   0  0  0  0  0  0  0  0  0  0  0  0
   17.1013   20.7479   21.9739 H   0  0  0  0  0  0  0  0  0  0  0  0
   15.8653   19.5742   22.5117 H   0  0  0  0  0  0  0  0  0  0  0  0
   16.2139   21.0209   23.5004 H   0  0  0  0  0  0  0  0  0  0  0  0
  1  2  1  0  0  0  0
  1  3  1  0  0  0  0
  1  4  1  0  0  0  0
  4  5  1  0  0  0  0
  4  6  1  0  0  0  0
  4  7  1  0  0  0  0
  7  8  1  0  0  0  0
  7  9  1  0  0  0  0
  7 10  1  0  0  0  0
 10 11  1  0  0  0  0
 10 12  1  0  0  0  0
 10 13  1  0  0  0  0
 13 14  1  0  0  0  0
 13 15  1  0  0  0  0
 13 16  1  0  0  0  0
 16 17  1  0  0  0  0
 16 18  1  0  0  0  0
 16 19  1  0  0  0  0
 19 20  1  0  0  0  0
 19 21  1  0  0  0  0
 19 22  1  0  0  0  0
  1 23  1  0  0  0  0
 23 24  1  0  0  0  0
 23 25  1  0  0  0  0
 23 26  1  0  0  0  0
M  END
> <VConfSearch Rank>
614

> <Conf_Id>
134

> <Delta U+W>
1.464

> <U+W>
23.306

> <U>
72.579

> <W>
-49.273

> <W(PB)>
-51.540

> <W(SA)>
2.267

> <Valence>
2.677

> <Coulomb>
69.622

> <VdW>
0.280

> <VdW6>
-7.328

> <VdW12>
7.608

> <Bond>
0.212

> <Angle>
0.911

> <Pdih>
1.555

> <Idih>
0.000

> <Tether>
0.000

$$$$
VeraChem MOL file


 26 25  0  0  0  0  0  0  0  0999 V2000     
   21.4874   16.8088   22.4409 N   0  3  0  0  0  0  0  0  0  0  0  0
   20.8228   16.2806   23.0274 H   0  0  0  0  0  0  0  0  0  0  0  0
   22.3546   16.8712   22.9965 H   0  0  0  0  0  0  0  0  0  0  0  0
   20.9470   18.1961   22.1575 C   0  0  0  0  0  0  0  0  0  0  0  0
   20.0280   18.0857   21.5764 H   0  0  0  0  0  0  0  0  0  0  0  0
   21.6817   18.7229   21.5434 H   0  0  0  0  0  0  0  0  0  0  0  0
   20.6589   19.0094   23.4323 C   0  0  0  0  0  0  0  0  0  0  0  0
   19.9347   18.4625   24.0492 H   0  0  0  0  0  0  0  0  0  0  0  0
   21.5809   19.1046   24.0212 H   0  0  0  0  0  0  0  0  0  0  0  0
   20.1114   20.4153   23.0915 C   0  0  0  0  0  0  0  0  0  0  0  0
   19.1684   20.3222   22.5363 H   0  0  0  0  0  0  0  0  0  0  0  0
   20.8136   20.9160   22.4105 H   0  0  0  0  0  0  0  0  0  0  0  0
   19.9073   21.3205   24.3342 C   0  0  0  0  0  0  0  0  0  0  0  0
   20.8808   21.4950   24.8128 H   0  0  0  0  0  0  0  0  0  0  0  0
   19.5576   22.3063   23.9981 H   0  0  0  0  0  0  0  0  0  0  0  0
   18.9194   20.7745   25.3969 C   0  0  0  0  0  0  0  0  0  0  0  0
   18.8597   21.4976   26.2224 H   0  0  0  0  0  0  0  0  0  0  0  0
   19.3100   19.8480   25.8385 H   0  0  0  0  0  0  0  0  0  0  0  0
   17.4960   20.5306   24.8459 C   0  0  0  0  0  0  0  0  0  0  0  0
   17.0913   21.4393   24.3819 H   0  0  0  0  0  0  0  0  0  0  0  0
   16.8158   20.2354   25.6553 H   0  0  0  0  0  0  0  0  0  0  0  0
   17.4861   19.7283   24.0977 H   0  0  0  0  0  0  0  0  0  0  0  0
   21.7437   16.0753   21.1316 C   0  0  0  0  0  0  0  0  0  0  0  0
   22.4739   16.6353   20.5433 H   0  0  0  0  0  0  0  0  0  0  0  0
   22.1326   15.0782   21.3498 H   0  0  0  0  0  0  0  0  0  0  0  0
   20.8065   15.9925   20.5768 H   0  0  0  0  0  0  0  0  0  0  0  0
  1  2  1  0  0  0  0
  1  3  1  0  0  0  0
  1  4  1  0  0  0  0
  4  5  1  0  0  0  0
  4  6  1  0  0  0  0
  4  7  1  0  0  0  0
  7  8  1  0  0  0  0
  7  9  1  0  0  0  0
  7 10  1  0  0  0  0
 10 11  1  0  0  0  0
 10 12  1  0  0  0  0
 10 13  1  0  0  0  0
 13 14  1  0  0  0  0
 13 15  1  0  0  0  0
 13 16  1  0  0  0  0
 16 17  1  0  0  0  0
 16 18  1  0  0  0  0
 16 19  1  0  0  0  0
 19 20  1  0  0  0  0
 19 21  1  0  0  0  0
 19 22  1  0  0  0  0
  1 23  1  0  0  0  0
 23 24  1  0  0  0  0
 23 25  1  0  0  0  0
 23 26  1  0  0  0  0
M  END
> <VConfSearch Rank>
615

> <Conf_Id>
30

> <Delta U+W>
0.910

> <U+W>
22.752

> <U>
71.870

> <W>
-49.118

> <W(PB)>
-51.409

> <W(SA)>
2.290

> <Valence>
2.682

> <Coulomb>
68.933

> <VdW>
0.255

> <VdW6>
-6.833

> <VdW12>
7.088

> <Bond>
0.205

> <Angle>
1.003

> <Pdih>
1.473

> <Idih>
0.000

> <Tether>
0.000

$$$$
VeraChem MOL file


 26 25  0  0  0  0  0  0  0  0999 V2000     
   18.4637   20.8598   21.7980 N   0  3  0  0  0  0  0  0  0  0  0  0
   17.5554   20.8139   22.2855 H   0  0  0  0  0  0  0  0  0  0  0  0
   18.4349   20.1078   21.0921 H   0  0  0  0  0  0  0  0  0  0  0  0
   19.5950   20.6156   22.7766 C   0  0  0  0  0  0  0  0  0  0  0  0
   19.5852   21.4265   23.5092 H   0  0  0  0  0  0  0  0  0  0  0  0
   20.5351   20.6645   22.2213 H   0  0  0  0  0  0  0  0  0  0  0  0
   19.4916   19.2615   23.5013 C   0  0  0  0  0  0  0  0  0  0  0  0
   18.5390   19.2098   24.0450 H   0  0  0  0  0  0  0  0  0  0  0  0
   19.4838   18.4566   22.7554 H   0  0  0  0  0  0  0  0  0  0  0  0
   20.6657   19.0597   24.4878 C   0  0  0  0  0  0  0  0  0  0  0  0
   20.7037   19.9151   25.1766 H   0  0  0  0  0  0  0  0  0  0  0  0
   21.6175   19.0719   23.9401 H   0  0  0  0  0  0  0  0  0  0  0  0
   20.5547   17.7610   25.3282 C   0  0  0  0  0  0  0  0  0  0  0  0
   21.4027   17.7193   26.0256 H   0  0  0  0  0  0  0  0  0  0  0  0
   19.6539   17.8168   25.9548 H   0  0  0  0  0  0  0  0  0  0  0  0
   20.5136   16.4442   24.5111 C   0  0  0  0  0  0  0  0  0  0  0  0
   19.6054   16.4076   23.8947 H   0  0  0  0  0  0  0  0  0  0  0  0
   20.4343   15.6010   25.2113 H   0  0  0  0  0  0  0  0  0  0  0  0
   21.7584   16.2344   23.6192 C   0  0  0  0  0  0  0  0  0  0  0  0
   21.8165   16.9891   22.8251 H   0  0  0  0  0  0  0  0  0  0  0  0
   21.7239   15.2493   23.1363 H   0  0  0  0  0  0  0  0  0  0  0  0
   22.6813   16.2858   24.2113 H   0  0  0  0  0  0  0  0  0  0  0  0
   18.6421   22.2150   21.1276 C   0  0  0  0  0  0  0  0  0  0  0  0
   17.8212   22.3783   20.4259 H   0  0  0  0  0  0  0  0  0  0  0  0
   18.6363   22.9966   21.8905 H   0  0  0  0  0  0  0  0  0  0  0  0
   19.5937   22.2280   20.5916 H   0  0  0  0  0  0  0  0  0  0  0  0
  1  2  1  0  0  0  0
  1  3  1  0  0  0  0
  1  4  1  0  0  0  0
  4  5  1  0  0  0  0
  4  6  1  0  0  0  0
  4  7  1  0  0  0  0
  7  8  1  0  0  0  0
  7  9  1  0  0  0  0
  7 10  1  0  0  0  0
 10 11  1  0  0  0  0
 10 12  1  0  0  0  0
 10 13  1  0  0  0  0
 13 14  1  0  0  0  0
 13 15  1  0  0  0  0
 13 16  1  0  0  0  0
 16 17  1  0  0  0  0
 16 18  1  0  0  0  0
 16 19  1  0  0  0  0
 19 20  1  0  0  0  0
 19 21  1  0  0  0  0
 19 22  1  0  0  0  0
  1 23  1  0  0  0  0
 23 24  1  0  0  0  0
 23 25  1  0  0  0  0
 23 26  1  0  0  0  0
M  END
> <VConfSearch Rank>
616

> <Conf_Id>
29

> <Delta U+W>
0.886

> <U+W>
22.729

> <U>
71.870

> <W>
-49.141

> <W(PB)>
-51.404

> <W(SA)>
2.262

> <Valence>
2.682

> <Coulomb>
68.933

> <VdW>
0.255

> <VdW6>
-6.833

> <VdW12>
7.088

> <Bond>
0.205

> <Angle>
1.003

> <Pdih>
1.473

> <Idih>
0.000

> <Tether>
0.000

$$$$
VeraChem MOL file


 26 25  0  0  0  0  0  0  0  0999 V2000     
   20.9719   21.4756   23.7917 N   0  3  0  0  0  0  0  0  0  0  0  0
   21.1986   22.0514   22.9660 H   0  0  0  0  0  0  0  0  0  0  0  0
   21.8461   20.9824   24.0310 H   0  0  0  0  0  0  0  0  0  0  0  0
   19.8844   20.4772   23.4501 C   0  0  0  0  0  0  0  0  0  0  0  0
   18.9828   21.0380   23.1912 H   0  0  0  0  0  0  0  0  0  0  0  0
   19.6785   19.8886   24.3474 H   0  0  0  0  0  0  0  0  0  0  0  0
   20.2620   19.5383   22.2887 C   0  0  0  0  0  0  0  0  0  0  0  0
   20.5015   20.1408   21.4025 H   0  0  0  0  0  0  0  0  0  0  0  0
   21.1758   18.9856   22.5416 H   0  0  0  0  0  0  0  0  0  0  0  0
   19.1269   18.5479   21.9283 C   0  0  0  0  0  0  0  0  0  0  0  0
   19.4501   17.9227   21.0853 H   0  0  0  0  0  0  0  0  0  0  0  0
   18.2628   19.1176   21.5595 H   0  0  0  0  0  0  0  0  0  0  0  0
   18.6583   17.6404   23.0979 C   0  0  0  0  0  0  0  0  0  0  0  0
   18.1807   18.2581   23.8704 H   0  0  0  0  0  0  0  0  0  0  0  0
   17.8699   16.9707   22.7276 H   0  0  0  0  0  0  0  0  0  0  0  0
   19.7713   16.7859   23.7565 C   0  0  0  0  0  0  0  0  0  0  0  0
   19.3259   16.1994   24.5721 H   0  0  0  0  0  0  0  0  0  0  0  0
   20.5202   17.4358   24.2286 H   0  0  0  0  0  0  0  0  0  0  0  0
   20.4662   15.8192   22.7709 C   0  0  0  0  0  0  0  0  0  0  0  0
   21.1834   15.1793   23.3009 H   0  0  0  0  0  0  0  0  0  0  0  0
   21.0193   16.3636   21.9955 H   0  0  0  0  0  0  0  0  0  0  0  0
   19.7349   15.1663   22.2771 H   0  0  0  0  0  0  0  0  0  0  0  0
   20.5214   22.3558   24.9493 C   0  0  0  0  0  0  0  0  0  0  0  0
   21.3132   23.0704   25.1851 H   0  0  0  0  0  0  0  0  0  0  0  0
   19.6146   22.8920   24.6609 H   0  0  0  0  0  0  0  0  0  0  0  0
   20.3194   21.7284   25.8202 H   0  0  0  0  0  0  0  0  0  0  0  0
  1  2  1  0  0  0  0
  1  3  1  0  0  0  0
  1  4  1  0  0  0  0
  4  5  1  0  0  0  0
  4  6  1  0  0  0  0
  4  7  1  0  0  0  0
  7  8  1  0  0  0  0
  7  9  1  0  0  0  0
  7 10  1  0  0  0  0
 10 11  1  0  0  0  0
 10 12  1  0  0  0  0
 10 13  1  0  0  0  0
 13 14  1  0  0  0  0
 13 15  1  0  0  0  0
 13 16  1  0  0  0  0
 16 17  1  0  0  0  0
 16 18  1  0  0  0  0
 16 19  1  0  0  0  0
 19 20  1  0  0  0  0
 19 21  1  0  0  0  0
 19 22  1  0  0  0  0
  1 23  1  0  0  0  0
 23 24  1  0  0  0  0
 23 25  1  0  0  0  0
 23 26  1  0  0  0  0
M  END
> <VConfSearch Rank>
617

> <Conf_Id>
82

> <Delta U+W>
1.026

> <U+W>
22.868

> <U>
72.455

> <W>
-49.586

> <W(PB)>
-51.821

> <W(SA)>
2.234

> <Valence>
2.908

> <Coulomb>
69.435

> <VdW>
0.112

> <VdW6>
-7.765

> <VdW12>
7.877

> <Bond>
0.233

> <Angle>
1.170

> <Pdih>
1.506

> <Idih>
0.000

> <Tether>
0.000

$$$$
VeraChem MOL file


 26 25  0  0  0  0  0  0  0  0999 V2000     
   21.5422   17.0300   24.1034 N   0  3  0  0  0  0  0  0  0  0  0  0
   20.9763   16.4792   23.4393 H   0  0  0  0  0  0  0  0  0  0  0  0
   21.3150   16.6530   25.0366 H   0  0  0  0  0  0  0  0  0  0  0  0
   21.1627   18.4950   24.0249 C   0  0  0  0  0  0  0  0  0  0  0  0
   21.4160   18.8517   23.0237 H   0  0  0  0  0  0  0  0  0  0  0  0
   21.7731   19.0394   24.7497 H   0  0  0  0  0  0  0  0  0  0  0  0
   19.6703   18.7538   24.3061 C   0  0  0  0  0  0  0  0  0  0  0  0
   19.0562   18.1954   23.5881 H   0  0  0  0  0  0  0  0  0  0  0  0
   19.4180   18.3599   25.2995 H   0  0  0  0  0  0  0  0  0  0  0  0
   19.3057   20.2584   24.2572 C   0  0  0  0  0  0  0  0  0  0  0  0
   19.8381   20.7789   25.0652 H   0  0  0  0  0  0  0  0  0  0  0  0
   18.2376   20.3765   24.4833 H   0  0  0  0  0  0  0  0  0  0  0  0
   19.6332   20.9648   22.9137 C   0  0  0  0  0  0  0  0  0  0  0  0
   19.3184   22.0151   22.9843 H   0  0  0  0  0  0  0  0  0  0  0  0
   20.7220   20.9929   22.7720 H   0  0  0  0  0  0  0  0  0  0  0  0
   18.9805   20.3308   21.6589 C   0  0  0  0  0  0  0  0  0  0  0  0
   19.3619   19.3124   21.5056 H   0  0  0  0  0  0  0  0  0  0  0  0
   19.2919   20.9043   20.7747 H   0  0  0  0  0  0  0  0  0  0  0  0
   17.4362   20.3065   21.7171 C   0  0  0  0  0  0  0  0  0  0  0  0
   17.0738   19.6550   22.5219 H   0  0  0  0  0  0  0  0  0  0  0  0
   17.0216   19.9283   20.7738 H   0  0  0  0  0  0  0  0  0  0  0  0
   17.0318   21.3136   21.8817 H   0  0  0  0  0  0  0  0  0  0  0  0
   23.0261   16.8632   23.8069 C   0  0  0  0  0  0  0  0  0  0  0  0
   23.6048   17.4275   24.5415 H   0  0  0  0  0  0  0  0  0  0  0  0
   23.2865   15.8041   23.8670 H   0  0  0  0  0  0  0  0  0  0  0  0
   23.2362   17.2382   22.8028 H   0  0  0  0  0  0  0  0  0  0  0  0
  1  2  1  0  0  0  0
  1  3  1  0  0  0  0
  1  4  1  0  0  0  0
  4  5  1  0  0  0  0
  4  6  1  0  0  0  0
  4  7  1  0  0  0  0
  7  8  1  0  0  0  0
  7  9  1  0  0  0  0
  7 10  1  0  0  0  0
 10 11  1  0  0  0  0
 10 12  1  0  0  0  0
 10 13  1  0  0  0  0
 13 14  1  0  0  0  0
 13 15  1  0  0  0  0
 13 16  1  0  0  0  0
 16 17  1  0  0  0  0
 16 18  1  0  0  0  0
 16 19  1  0  0  0  0
 19 20  1  0  0  0  0
 19 21  1  0  0  0  0
 19 22  1  0  0  0  0
  1 23  1  0  0  0  0
 23 24  1  0  0  0  0
 23 25  1  0  0  0  0
 23 26  1  0  0  0  0
M  END
> <VConfSearch Rank>
618

> <Conf_Id>
71

> <Delta U+W>
1.096

> <U+W>
22.938

> <U>
72.455

> <W>
-49.517

> <W(PB)>
-51.795

> <W(SA)>
2.278

> <Valence>
2.908

> <Coulomb>
69.435

> <VdW>
0.112

> <VdW6>
-7.766

> <VdW12>
7.877

> <Bond>
0.233

> <Angle>
1.170

> <Pdih>
1.506

> <Idih>
0.000

> <Tether>
0.000

$$$$
VeraChem MOL file


 26 25  0  0  0  0  0  0  0  0999 V2000     
   18.2679   18.3123   21.7506 N   0  3  0  0  0  0  0  0  0  0  0  0
   18.9646   19.0267   21.4919 H   0  0  0  0  0  0  0  0  0  0  0  0
   17.3693   18.6667   21.3863 H   0  0  0  0  0  0  0  0  0  0  0  0
   18.1909   18.1862   23.2639 C   0  0  0  0  0  0  0  0  0  0  0  0
   17.4582   17.4090   23.4952 H   0  0  0  0  0  0  0  0  0  0  0  0
   17.8068   19.1328   23.6513 H   0  0  0  0  0  0  0  0  0  0  0  0
   19.5295   17.8593   23.9642 C   0  0  0  0  0  0  0  0  0  0  0  0
   19.3535   17.8007   25.0464 H   0  0  0  0  0  0  0  0  0  0  0  0
   19.8645   16.8595   23.6591 H   0  0  0  0  0  0  0  0  0  0  0  0
   20.6587   18.8834   23.6854 C   0  0  0  0  0  0  0  0  0  0  0  0
   20.8978   18.8920   22.6137 H   0  0  0  0  0  0  0  0  0  0  0  0
   21.5657   18.5370   24.1976 H   0  0  0  0  0  0  0  0  0  0  0  0
   20.3122   20.3181   24.1589 C   0  0  0  0  0  0  0  0  0  0  0  0
   19.3885   20.6548   23.6703 H   0  0  0  0  0  0  0  0  0  0  0  0
   20.1057   20.3118   25.2380 H   0  0  0  0  0  0  0  0  0  0  0  0
   21.4222   21.3528   23.8523 C   0  0  0  0  0  0  0  0  0  0  0  0
   21.0517   22.3539   24.1137 H   0  0  0  0  0  0  0  0  0  0  0  0
   21.6242   21.3731   22.7722 H   0  0  0  0  0  0  0  0  0  0  0  0
   22.7372   21.0938   24.6225 C   0  0  0  0  0  0  0  0  0  0  0  0
   23.2158   20.1600   24.3028 H   0  0  0  0  0  0  0  0  0  0  0  0
   22.5571   21.0361   25.7038 H   0  0  0  0  0  0  0  0  0  0  0  0
   23.4526   21.9073   24.4450 H   0  0  0  0  0  0  0  0  0  0  0  0
   18.5996   16.9734   21.1021 C   0  0  0  0  0  0  0  0  0  0  0  0
   18.6164   17.0963   20.0169 H   0  0  0  0  0  0  0  0  0  0  0  0
   19.5788   16.6373   21.4489 H   0  0  0  0  0  0  0  0  0  0  0  0
   17.8369   16.2423   21.3787 H   0  0  0  0  0  0  0  0  0  0  0  0
  1  2  1  0  0  0  0
  1  3  1  0  0  0  0
  1  4  1  0  0  0  0
  4  5  1  0  0  0  0
  4  6  1  0  0  0  0
  4  7  1  0  0  0  0
  7  8  1  0  0  0  0
  7  9  1  0  0  0  0
  7 10  1  0  0  0  0
 10 11  1  0  0  0  0
 10 12  1  0  0  0  0
 10 13  1  0  0  0  0
 13 14  1  0  0  0  0
 13 15  1  0  0  0  0
 13 16  1  0  0  0  0
 16 17  1  0  0  0  0
 16 18  1  0  0  0  0
 16 19  1  0  0  0  0
 19 20  1  0  0  0  0
 19 21  1  0  0  0  0
 19 22  1  0  0  0  0
  1 23  1  0  0  0  0
 23 24  1  0  0  0  0
 23 25  1  0  0  0  0
 23 26  1  0  0  0  0
M  END
> <VConfSearch Rank>
619

> <Conf_Id>
84

> <Delta U+W>
1.456

> <U+W>
23.298

> <U>
73.042

> <W>
-49.744

> <W(PB)>
-51.966

> <W(SA)>
2.222

> <Valence>
2.938

> <Coulomb>
69.625

> <VdW>
0.478

> <VdW6>
-8.182

> <VdW12>
8.660

> <Bond>
0.253

> <Angle>
1.038

> <Pdih>
1.647

> <Idih>
0.000

> <Tether>
0.000

$$$$
VeraChem MOL file


 26 25  0  0  0  0  0  0  0  0999 V2000     
   22.2031   19.9014   23.2378 N   0  3  0  0  0  0  0  0  0  0  0  0
   21.9272   18.9083   23.2121 H   0  0  0  0  0  0  0  0  0  0  0  0
   22.7844   20.0058   24.0839 H   0  0  0  0  0  0  0  0  0  0  0  0
   20.9708   20.7787   23.3402 C   0  0  0  0  0  0  0  0  0  0  0  0
   20.3850   20.6442   22.4279 H   0  0  0  0  0  0  0  0  0  0  0  0
   21.3065   21.8181   23.3775 H   0  0  0  0  0  0  0  0  0  0  0  0
   20.0925   20.4796   24.5728 C   0  0  0  0  0  0  0  0  0  0  0  0
   20.6752   20.6687   25.4841 H   0  0  0  0  0  0  0  0  0  0  0  0
   19.2577   21.1928   24.5906 H   0  0  0  0  0  0  0  0  0  0  0  0
   19.5313   19.0357   24.6134 C   0  0  0  0  0  0  0  0  0  0  0  0
   18.9338   18.9194   25.5282 H   0  0  0  0  0  0  0  0  0  0  0  0
   20.3563   18.3156   24.6959 H   0  0  0  0  0  0  0  0  0  0  0  0
   18.6535   18.6879   23.3869 C   0  0  0  0  0  0  0  0  0  0  0  0
   17.8437   19.4248   23.2945 H   0  0  0  0  0  0  0  0  0  0  0  0
   19.2492   18.7533   22.4666 H   0  0  0  0  0  0  0  0  0  0  0  0
   18.0484   17.2707   23.4974 C   0  0  0  0  0  0  0  0  0  0  0  0
   17.4407   17.1962   24.4102 H   0  0  0  0  0  0  0  0  0  0  0  0
   18.8541   16.5291   23.5921 H   0  0  0  0  0  0  0  0  0  0  0  0
   17.1754   16.9241   22.2724 C   0  0  0  0  0  0  0  0  0  0  0  0
   16.3401   17.6291   22.1706 H   0  0  0  0  0  0  0  0  0  0  0  0
   16.7543   15.9150   22.3694 H   0  0  0  0  0  0  0  0  0  0  0  0
   17.7640   16.9556   21.3462 H   0  0  0  0  0  0  0  0  0  0  0  0
   22.9986   20.2675   21.9927 C   0  0  0  0  0  0  0  0  0  0  0  0
   23.3048   21.3139   22.0571 H   0  0  0  0  0  0  0  0  0  0  0  0
   23.8819   19.6279   21.9309 H   0  0  0  0  0  0  0  0  0  0  0  0
   22.3728   20.1186   21.1100 H   0  0  0  0  0  0  0  0  0  0  0  0
  1  2  1  0  0  0  0
  1  3  1  0  0  0  0
  1  4  1  0  0  0  0
  4  5  1  0  0  0  0
  4  6  1  0  0  0  0
  4  7  1  0  0  0  0
  7  8  1  0  0  0  0
  7  9  1  0  0  0  0
  7 10  1  0  0  0  0
 10 11  1  0  0  0  0
 10 12  1  0  0  0  0
 10 13  1  0  0  0  0
 13 14  1  0  0  0  0
 13 15  1  0  0  0  0
 13 16  1  0  0  0  0
 16 17  1  0  0  0  0
 16 18  1  0  0  0  0
 16 19  1  0  0  0  0
 19 20  1  0  0  0  0
 19 21  1  0  0  0  0
 19 22  1  0  0  0  0
  1 23  1  0  0  0  0
 23 24  1  0  0  0  0
 23 25  1  0  0  0  0
 23 26  1  0  0  0  0
M  END
> <VConfSearch Rank>
620

> <Conf_Id>
73

> <Delta U+W>
0.884

> <U+W>
22.726

> <U>
71.905

> <W>
-49.179

> <W(PB)>
-51.494

> <W(SA)>
2.315

> <Valence>
2.125

> <Coulomb>
69.686

> <VdW>
0.093

> <VdW6>
-6.766

> <VdW12>
6.859

> <Bond>
0.169

> <Angle>
0.621

> <Pdih>
1.336

> <Idih>
0.000

> <Tether>
0.000

$$$$
VeraChem MOL file


 26 25  0  0  0  0  0  0  0  0999 V2000     
   20.6602   16.2265   21.8882 N   0  3  0  0  0  0  0  0  0  0  0  0
   21.6384   16.1597   22.2101 H   0  0  0  0  0  0  0  0  0  0  0  0
   20.7128   16.5917   20.9245 H   0  0  0  0  0  0  0  0  0  0  0  0
   19.8840   17.1848   22.7691 C   0  0  0  0  0  0  0  0  0  0  0  0
   19.8590   16.7668   23.7786 H   0  0  0  0  0  0  0  0  0  0  0  0
   18.8597   17.2330   22.3909 H   0  0  0  0  0  0  0  0  0  0  0  0
   20.4884   18.6001   22.8093 C   0  0  0  0  0  0  0  0  0  0  0  0
   21.5228   18.5450   23.1742 H   0  0  0  0  0  0  0  0  0  0  0  0
   20.5269   19.0097   21.7911 H   0  0  0  0  0  0  0  0  0  0  0  0
   19.6656   19.5405   23.7177 C   0  0  0  0  0  0  0  0  0  0  0  0
   19.6250   19.1245   24.7342 H   0  0  0  0  0  0  0  0  0  0  0  0
   18.6301   19.5885   23.3528 H   0  0  0  0  0  0  0  0  0  0  0  0
   20.2633   20.9652   23.7657 C   0  0  0  0  0  0  0  0  0  0  0  0
   21.2987   20.9175   24.1308 H   0  0  0  0  0  0  0  0  0  0  0  0
   20.3040   21.3813   22.7495 H   0  0  0  0  0  0  0  0  0  0  0  0
   19.4402   21.9055   24.6743 C   0  0  0  0  0  0  0  0  0  0  0  0
   19.3985   21.4948   25.6929 H   0  0  0  0  0  0  0  0  0  0  0  0
   18.4040   21.9587   24.3118 H   0  0  0  0  0  0  0  0  0  0  0  0
   20.0400   23.3271   24.7198 C   0  0  0  0  0  0  0  0  0  0  0  0
   19.4422   23.9795   25.3695 H   0  0  0  0  0  0  0  0  0  0  0  0
   20.0631   23.7783   23.7193 H   0  0  0  0  0  0  0  0  0  0  0  0
   21.0655   23.3108   25.1112 H   0  0  0  0  0  0  0  0  0  0  0  0
   19.9980   14.8557   21.9045 C   0  0  0  0  0  0  0  0  0  0  0  0
   18.9763   14.9459   21.5289 H   0  0  0  0  0  0  0  0  0  0  0  0
   20.5667   14.1755   21.2665 H   0  0  0  0  0  0  0  0  0  0  0  0
   19.9838   14.4757   22.9284 H   0  0  0  0  0  0  0  0  0  0  0  0
  1  2  1  0  0  0  0
  1  3  1  0  0  0  0
  1  4  1  0  0  0  0
  4  5  1  0  0  0  0
  4  6  1  0  0  0  0
  4  7  1  0  0  0  0
  7  8  1  0  0  0  0
  7  9  1  0  0  0  0
  7 10  1  0  0  0  0
 10 11  1  0  0  0  0
 10 12  1  0  0  0  0
 10 13  1  0  0  0  0
 13 14  1  0  0  0  0
 13 15  1  0  0  0  0
 13 16  1  0  0  0  0
 16 17  1  0  0  0  0
 16 18  1  0  0  0  0
 16 19  1  0  0  0  0
 19 20  1  0  0  0  0
 19 21  1  0  0  0  0
 19 22  1  0  0  0  0
  1 23  1  0  0  0  0
 23 24  1  0  0  0  0
 23 25  1  0  0  0  0
 23 26  1  0  0  0  0
M  END
> <VConfSearch Rank>
621

> <Conf_Id>
11

> <Delta U+W>
0.000

> <U+W>
21.842

> <U>
70.357

> <W>
-48.515

> <W(PB)>
-50.856

> <W(SA)>
2.341

> <Valence>
1.714

> <Coulomb>
68.480

> <VdW>
0.163

> <VdW6>
-5.268

> <VdW12>
5.431

> <Bond>
0.126

> <Angle>
0.350

> <Pdih>
1.238

> <Idih>
0.000

> <Tether>
0.000

$$$$
VeraChem MOL file


 26 25  0  0  0  0  0  0  0  0999 V2000     
   21.1411   17.5197   26.0563 N   0  3  0  0  0  0  0  0  0  0  0  0
   22.0052   17.0610   26.3865 H   0  0  0  0  0  0  0  0  0  0  0  0
   20.4354   16.7677   26.0271 H   0  0  0  0  0  0  0  0  0  0  0  0
   21.3657   18.0839   24.6633 C   0  0  0  0  0  0  0  0  0  0  0  0
   21.8165   17.2911   24.0609 H   0  0  0  0  0  0  0  0  0  0  0  0
   22.0873   18.9008   24.7433 H   0  0  0  0  0  0  0  0  0  0  0  0
   20.0863   18.5812   23.9600 C   0  0  0  0  0  0  0  0  0  0  0  0
   19.3487   17.7684   23.9287 H   0  0  0  0  0  0  0  0  0  0  0  0
   19.6391   19.3999   24.5383 H   0  0  0  0  0  0  0  0  0  0  0  0
   20.3852   19.0679   22.5247 C   0  0  0  0  0  0  0  0  0  0  0  0
   20.8348   18.2487   21.9463 H   0  0  0  0  0  0  0  0  0  0  0  0
   21.1284   19.8768   22.5600 H   0  0  0  0  0  0  0  0  0  0  0  0
   19.1104   19.5680   21.8076 C   0  0  0  0  0  0  0  0  0  0  0  0
   18.3672   18.7594   21.7725 H   0  0  0  0  0  0  0  0  0  0  0  0
   18.6609   20.3874   22.3856 H   0  0  0  0  0  0  0  0  0  0  0  0
   19.4097   20.0548   20.3721 C   0  0  0  0  0  0  0  0  0  0  0  0
   19.8573   19.2378   19.7889 H   0  0  0  0  0  0  0  0  0  0  0  0
   20.1512   20.8655   20.4020 H   0  0  0  0  0  0  0  0  0  0  0  0
   18.1346   20.5534   19.6593 C   0  0  0  0  0  0  0  0  0  0  0  0
   18.3672   20.8946   18.6421 H   0  0  0  0  0  0  0  0  0  0  0  0
   17.6823   21.3943   20.2012 H   0  0  0  0  0  0  0  0  0  0  0  0
   17.3862   19.7538   19.5832 H   0  0  0  0  0  0  0  0  0  0  0  0
   20.7289   18.6129   27.0357 C   0  0  0  0  0  0  0  0  0  0  0  0
   19.7807   19.0482   26.7141 H   0  0  0  0  0  0  0  0  0  0  0  0
   20.6135   18.1763   28.0303 H   0  0  0  0  0  0  0  0  0  0  0  0
   21.5022   19.3838   27.0591 H   0  0  0  0  0  0  0  0  0  0  0  0
  1  2  1  0  0  0  0
  1  3  1  0  0  0  0
  1  4  1  0  0  0  0
  4  5  1  0  0  0  0
  4  6  1  0  0  0  0
  4  7  1  0  0  0  0
  7  8  1  0  0  0  0
  7  9  1  0  0  0  0
  7 10  1  0  0  0  0
 10 11  1  0  0  0  0
 10 12  1  0  0  0  0
 10 13  1  0  0  0  0
 13 14  1  0  0  0  0
 13 15  1  0  0  0  0
 13 16  1  0  0  0  0
 16 17  1  0  0  0  0
 16 18  1  0  0  0  0
 16 19  1  0  0  0  0
 19 20  1  0  0  0  0
 19 21  1  0  0  0  0
 19 22  1  0  0  0  0
  1 23  1  0  0  0  0
 23 24  1  0  0  0  0
 23 25  1  0  0  0  0
 23 26  1  0  0  0  0
M  END
> <VConfSearch Rank>
622

> <Conf_Id>
102

> <Delta U+W>
0.121

> <U+W>
21.963

> <U>
70.745

> <W>
-48.782

> <W(PB)>
-51.111

> <W(SA)>
2.329

> <Valence>
1.993

> <Coulomb>
68.323

> <VdW>
0.429

> <VdW6>
-5.973

> <VdW12>
6.402

> <Bond>
0.161

> <Angle>
0.472

> <Pdih>
1.360

> <Idih>
0.000

> <Tether>
0.000

$$$$
VeraChem MOL file


 26 25  0  0  0  0  0  0  0  0999 V2000     
   18.2631   20.2454   20.6922 N   0  3  0  0  0  0  0  0  0  0  0  0
   17.4160   19.7173   20.9531 H   0  0  0  0  0  0  0  0  0  0  0  0
   18.2795   20.2291   19.6599 H   0  0  0  0  0  0  0  0  0  0  0  0
   19.5023   19.5503   21.2311 C   0  0  0  0  0  0  0  0  0  0  0  0
   20.3709   20.1593   20.9684 H   0  0  0  0  0  0  0  0  0  0  0  0
   19.5896   18.5931   20.7107 H   0  0  0  0  0  0  0  0  0  0  0  0
   19.4822   19.2936   22.7517 C   0  0  0  0  0  0  0  0  0  0  0  0
   19.4263   20.2492   23.2889 H   0  0  0  0  0  0  0  0  0  0  0  0
   18.5806   18.7239   23.0129 H   0  0  0  0  0  0  0  0  0  0  0  0
   20.7378   18.5185   23.2090 C   0  0  0  0  0  0  0  0  0  0  0  0
   21.6379   19.0888   22.9400 H   0  0  0  0  0  0  0  0  0  0  0  0
   20.7947   17.5626   22.6698 H   0  0  0  0  0  0  0  0  0  0  0  0
   20.7296   18.2534   24.7319 C   0  0  0  0  0  0  0  0  0  0  0  0
   20.6731   19.2092   25.2711 H   0  0  0  0  0  0  0  0  0  0  0  0
   19.8295   17.6834   25.0010 H   0  0  0  0  0  0  0  0  0  0  0  0
   21.9855   17.4781   25.1889 C   0  0  0  0  0  0  0  0  0  0  0  0
   22.8888   18.0454   24.9239 H   0  0  0  0  0  0  0  0  0  0  0  0
   22.0452   16.5198   24.6541 H   0  0  0  0  0  0  0  0  0  0  0  0
   21.9739   17.2155   26.7100 C   0  0  0  0  0  0  0  0  0  0  0  0
   21.9492   18.1574   27.2733 H   0  0  0  0  0  0  0  0  0  0  0  0
   22.8729   16.6643   27.0151 H   0  0  0  0  0  0  0  0  0  0  0  0
   21.0989   16.6200   27.0013 H   0  0  0  0  0  0  0  0  0  0  0  0
   18.1783   21.6854   21.1856 C   0  0  0  0  0  0  0  0  0  0  0  0
   19.0781   22.2232   20.8792 H   0  0  0  0  0  0  0  0  0  0  0  0
   17.2976   22.1613   20.7486 H   0  0  0  0  0  0  0  0  0  0  0  0
   18.0957   21.6906   22.2743 H   0  0  0  0  0  0  0  0  0  0  0  0
  1  2  1  0  0  0  0
  1  3  1  0  0  0  0
  1  4  1  0  0  0  0
  4  5  1  0  0  0  0
  4  6  1  0  0  0  0
  4  7  1  0  0  0  0
  7  8  1  0  0  0  0
  7  9  1  0  0  0  0
  7 10  1  0  0  0  0
 10 11  1  0  0  0  0
 10 12  1  0  0  0  0
 10 13  1  0  0  0  0
 13 14  1  0  0  0  0
 13 15  1  0  0  0  0
 13 16  1  0  0  0  0
 16 17  1  0  0  0  0
 16 18  1  0  0  0  0
 16 19  1  0  0  0  0
 19 20  1  0  0  0  0
 19 21  1  0  0  0  0
 19 22  1  0  0  0  0
  1 23  1  0  0  0  0
 23 24  1  0  0  0  0
 23 25  1  0  0  0  0
 23 26  1  0  0  0  0
M  END
> <VConfSearch Rank>
623

> <Conf_Id>
37

> <Delta U+W>
0.125

> <U+W>
21.967

> <U>
70.745

> <W>
-48.778

> <W(PB)>
-51.115

> <W(SA)>
2.337

> <Valence>
1.993

> <Coulomb>
68.323

> <VdW>
0.429

> <VdW6>
-5.973

> <VdW12>
6.403

> <Bond>
0.161

> <Angle>
0.472

> <Pdih>
1.360

> <Idih>
0.000

> <Tether>
0.000

$$$$
VeraChem MOL file


 26 25  0  0  0  0  0  0  0  0999 V2000     
   18.6306   21.7194   23.8923 N   0  3  0  0  0  0  0  0  0  0  0  0
   18.7055   22.3653   23.0910 H   0  0  0  0  0  0  0  0  0  0  0  0
   19.3110   22.0642   24.5872 H   0  0  0  0  0  0  0  0  0  0  0  0
   18.9890   20.3107   23.4637 C   0  0  0  0  0  0  0  0  0  0  0  0
   18.2533   19.9883   22.7226 H   0  0  0  0  0  0  0  0  0  0  0  0
   18.9017   19.6645   24.3402 H   0  0  0  0  0  0  0  0  0  0  0  0
   20.4064   20.1973   22.8699 C   0  0  0  0  0  0  0  0  0  0  0  0
   20.4940   20.8867   22.0196 H   0  0  0  0  0  0  0  0  0  0  0  0
   21.1463   20.5208   23.6142 H   0  0  0  0  0  0  0  0  0  0  0  0
   20.7432   18.7654   22.3903 C   0  0  0  0  0  0  0  0  0  0  0  0
   21.7161   18.7934   21.8827 H   0  0  0  0  0  0  0  0  0  0  0  0
   20.0081   18.4489   21.6375 H   0  0  0  0  0  0  0  0  0  0  0  0
   20.7884   17.7320   23.5449 C   0  0  0  0  0  0  0  0  0  0  0  0
   21.5383   18.0384   24.2873 H   0  0  0  0  0  0  0  0  0  0  0  0
   19.8228   17.7221   24.0674 H   0  0  0  0  0  0  0  0  0  0  0  0
   21.0925   16.2903   23.0698 C   0  0  0  0  0  0  0  0  0  0  0  0
   20.3388   15.9740   22.3351 H   0  0  0  0  0  0  0  0  0  0  0  0
   20.9907   15.6089   23.9261 H   0  0  0  0  0  0  0  0  0  0  0  0
   22.5070   16.1237   22.4688 C   0  0  0  0  0  0  0  0  0  0  0  0
   22.6188   16.6889   21.5354 H   0  0  0  0  0  0  0  0  0  0  0  0
   22.7049   15.0686   22.2399 H   0  0  0  0  0  0  0  0  0  0  0  0
   23.2779   16.4642   23.1723 H   0  0  0  0  0  0  0  0  0  0  0  0
   17.2212   21.7431   24.4674 C   0  0  0  0  0  0  0  0  0  0  0  0
   17.1753   21.0786   25.3330 H   0  0  0  0  0  0  0  0  0  0  0  0
   16.9756   22.7630   24.7718 H   0  0  0  0  0  0  0  0  0  0  0  0
   16.5162   21.4061   23.7043 H   0  0  0  0  0  0  0  0  0  0  0  0
  1  2  1  0  0  0  0
  1  3  1  0  0  0  0
  1  4  1  0  0  0  0
  4  5  1  0  0  0  0
  4  6  1  0  0  0  0
  4  7  1  0  0  0  0
  7  8  1  0  0  0  0
  7  9  1  0  0  0  0
  7 10  1  0  0  0  0
 10 11  1  0  0  0  0
 10 12  1  0  0  0  0
 10 13  1  0  0  0  0
 13 14  1  0  0  0  0
 13 15  1  0  0  0  0
 13 16  1  0  0  0  0
 16 17  1  0  0  0  0
 16 18  1  0  0  0  0
 16 19  1  0  0  0  0
 19 20  1  0  0  0  0
 19 21  1  0  0  0  0
 19 22  1  0  0  0  0
  1 23  1  0  0  0  0
 23 24  1  0  0  0  0
 23 25  1  0  0  0  0
 23 26  1  0  0  0  0
M  END
> <VConfSearch Rank>
624

> <Conf_Id>
137

> <Delta U+W>
1.038

> <U+W>
22.880

> <U>
71.810

> <W>
-48.930

> <W(PB)>
-51.257

> <W(SA)>
2.327

> <Valence>
2.568

> <Coulomb>
68.877

> <VdW>
0.364

> <VdW6>
-6.470

> <VdW12>
6.834

> <Bond>
0.191

> <Angle>
0.752

> <Pdih>
1.626

> <Idih>
0.000

> <Tether>
0.000

$$$$
VeraChem MOL file


 26 25  0  0  0  0  0  0  0  0999 V2000     
   18.2583   21.2905   24.0464 N   0  3  0  0  0  0  0  0  0  0  0  0
   18.5384   21.7468   23.1642 H   0  0  0  0  0  0  0  0  0  0  0  0
   18.8830   21.6821   24.7684 H   0  0  0  0  0  0  0  0  0  0  0  0
   18.4524   19.7909   23.9444 C   0  0  0  0  0  0  0  0  0  0  0  0
   17.7816   19.4181   23.1663 H   0  0  0  0  0  0  0  0  0  0  0  0
   18.1532   19.3487   24.8980 H   0  0  0  0  0  0  0  0  0  0  0  0
   19.9010   19.3850   23.6172 C   0  0  0  0  0  0  0  0  0  0  0  0
   20.1961   19.8499   22.6682 H   0  0  0  0  0  0  0  0  0  0  0  0
   20.5731   19.7755   24.3929 H   0  0  0  0  0  0  0  0  0  0  0  0
   20.0478   17.8477   23.5264 C   0  0  0  0  0  0  0  0  0  0  0  0
   19.4121   17.4618   22.7174 H   0  0  0  0  0  0  0  0  0  0  0  0
   19.6701   17.3981   24.4554 H   0  0  0  0  0  0  0  0  0  0  0  0
   21.5068   17.3753   23.3104 C   0  0  0  0  0  0  0  0  0  0  0  0
   22.1393   17.7462   24.1288 H   0  0  0  0  0  0  0  0  0  0  0  0
   21.5307   16.2786   23.3763 H   0  0  0  0  0  0  0  0  0  0  0  0
   22.1046   17.8098   21.9510 C   0  0  0  0  0  0  0  0  0  0  0  0
   22.1638   18.9048   21.8949 H   0  0  0  0  0  0  0  0  0  0  0  0
   21.4453   17.4839   21.1343 H   0  0  0  0  0  0  0  0  0  0  0  0
   23.5152   17.2210   21.7351 C   0  0  0  0  0  0  0  0  0  0  0  0
   24.2061   17.5536   22.5207 H   0  0  0  0  0  0  0  0  0  0  0  0
   23.9251   17.5413   20.7684 H   0  0  0  0  0  0  0  0  0  0  0  0
   23.4911   16.1235   21.7431 H   0  0  0  0  0  0  0  0  0  0  0  0
   16.8043   21.6037   24.3712 C   0  0  0  0  0  0  0  0  0  0  0  0
   16.5409   21.1388   25.3238 H   0  0  0  0  0  0  0  0  0  0  0  0
   16.6783   22.6864   24.4419 H   0  0  0  0  0  0  0  0  0  0  0  0
   16.1659   21.2091   23.5777 H   0  0  0  0  0  0  0  0  0  0  0  0
  1  2  1  0  0  0  0
  1  3  1  0  0  0  0
  1  4  1  0  0  0  0
  4  5  1  0  0  0  0
  4  6  1  0  0  0  0
  4  7  1  0  0  0  0
  7  8  1  0  0  0  0
  7  9  1  0  0  0  0
  7 10  1  0  0  0  0
 10 11  1  0  0  0  0
 10 12  1  0  0  0  0
 10 13  1  0  0  0  0
 13 14  1  0  0  0  0
 13 15  1  0  0  0  0
 13 16  1  0  0  0  0
 16 17  1  0  0  0  0
 16 18  1  0  0  0  0
 16 19  1  0  0  0  0
 19 20  1  0  0  0  0
 19 21  1  0  0  0  0
 19 22  1  0  0  0  0
  1 23  1  0  0  0  0
 23 24  1  0  0  0  0
 23 25  1  0  0  0  0
 23 26  1  0  0  0  0
M  END
> <VConfSearch Rank>
625

> <Conf_Id>
35

> <Delta U+W>
0.670

> <U+W>
22.512

> <U>
71.348

> <W>
-48.837

> <W(PB)>
-51.150

> <W(SA)>
2.313

> <Valence>
2.262

> <Coulomb>
68.807

> <VdW>
0.280

> <VdW6>
-5.915

> <VdW12>
6.195

> <Bond>
0.164

> <Angle>
0.622

> <Pdih>
1.475

> <Idih>
0.000

> <Tether>
0.000

$$$$
VeraChem MOL file


 26 25  0  0  0  0  0  0  0  0999 V2000     
   22.0339   17.1961   22.1375 N   0  3  0  0  0  0  0  0  0  0  0  0
   22.5613   17.9275   21.6357 H   0  0  0  0  0  0  0  0  0  0  0  0
   21.2967   16.8912   21.4830 H   0  0  0  0  0  0  0  0  0  0  0  0
   21.4125   17.7693   23.3954 C   0  0  0  0  0  0  0  0  0  0  0  0
   22.2239   18.0862   24.0555 H   0  0  0  0  0  0  0  0  0  0  0  0
   20.8586   16.9680   23.8909 H   0  0  0  0  0  0  0  0  0  0  0  0
   20.4721   18.9574   23.1232 C   0  0  0  0  0  0  0  0  0  0  0  0
   21.0289   19.7532   22.6109 H   0  0  0  0  0  0  0  0  0  0  0  0
   19.6732   18.6320   22.4451 H   0  0  0  0  0  0  0  0  0  0  0  0
   19.8662   19.5077   24.4360 C   0  0  0  0  0  0  0  0  0  0  0  0
   20.6822   19.7501   25.1310 H   0  0  0  0  0  0  0  0  0  0  0  0
   19.2681   18.7258   24.9245 H   0  0  0  0  0  0  0  0  0  0  0  0
   18.9993   20.7753   24.2358 C   0  0  0  0  0  0  0  0  0  0  0  0
   18.7113   21.1594   25.2242 H   0  0  0  0  0  0  0  0  0  0  0  0
   19.6021   21.5633   23.7636 H   0  0  0  0  0  0  0  0  0  0  0  0
   17.7201   20.5265   23.4015 C   0  0  0  0  0  0  0  0  0  0  0  0
   17.1423   19.7032   23.8443 H   0  0  0  0  0  0  0  0  0  0  0  0
   17.9859   20.2169   22.3821 H   0  0  0  0  0  0  0  0  0  0  0  0
   16.8351   21.7891   23.3259 C   0  0  0  0  0  0  0  0  0  0  0  0
   16.5135   22.1070   24.3262 H   0  0  0  0  0  0  0  0  0  0  0  0
   15.9345   21.5961   22.7287 H   0  0  0  0  0  0  0  0  0  0  0  0
   17.3761   22.6228   22.8596 H   0  0  0  0  0  0  0  0  0  0  0  0
   22.9459   16.0305   22.4950 C   0  0  0  0  0  0  0  0  0  0  0  0
   22.3597   15.2561   22.9946 H   0  0  0  0  0  0  0  0  0  0  0  0
   23.3868   15.6272   21.5806 H   0  0  0  0  0  0  0  0  0  0  0  0
   23.7362   16.3840   23.1608 H   0  0  0  0  0  0  0  0  0  0  0  0
  1  2  1  0  0  0  0
  1  3  1  0  0  0  0
  1  4  1  0  0  0  0
  4  5  1  0  0  0  0
  4  6  1  0  0  0  0
  4  7  1  0  0  0  0
  7  8  1  0  0  0  0
  7  9  1  0  0  0  0
  7 10  1  0  0  0  0
 10 11  1  0  0  0  0
 10 12  1  0  0  0  0
 10 13  1  0  0  0  0
 13 14  1  0  0  0  0
 13 15  1  0  0  0  0
 13 16  1  0  0  0  0
 16 17  1  0  0  0  0
 16 18  1  0  0  0  0
 16 19  1  0  0  0  0
 19 20  1  0  0  0  0
 19 21  1  0  0  0  0
 19 22  1  0  0  0  0
  1 23  1  0  0  0  0
 23 24  1  0  0  0  0
 23 25  1  0  0  0  0
 23 26  1  0  0  0  0
M  END
> <VConfSearch Rank>
626

> <Conf_Id>
36

> <Delta U+W>
0.662

> <U+W>
22.504

> <U>
71.348

> <W>
-48.844

> <W(PB)>
-51.157

> <W(SA)>
2.313

> <Valence>
2.262

> <Coulomb>
68.807

> <VdW>
0.280

> <VdW6>
-5.916

> <VdW12>
6.195

> <Bond>
0.164

> <Angle>
0.622

> <Pdih>
1.475

> <Idih>
0.000

> <Tether>
0.000

$$$$
VeraChem MOL file


 26 25  0  0  0  0  0  0  0  0999 V2000     
   19.1706   16.2578   22.9493 N   0  3  0  0  0  0  0  0  0  0  0  0
   19.0048   16.3074   21.9320 H   0  0  0  0  0  0  0  0  0  0  0  0
   18.2558   16.0230   23.3652 H   0  0  0  0  0  0  0  0  0  0  0  0
   19.6518   17.5983   23.4668 C   0  0  0  0  0  0  0  0  0  0  0  0
   20.6163   17.8088   22.9987 H   0  0  0  0  0  0  0  0  0  0  0  0
   19.8043   17.5064   24.5451 H   0  0  0  0  0  0  0  0  0  0  0  0
   18.6698   18.7503   23.1788 C   0  0  0  0  0  0  0  0  0  0  0  0
   18.5151   18.8415   22.0954 H   0  0  0  0  0  0  0  0  0  0  0  0
   17.6925   18.5066   23.6164 H   0  0  0  0  0  0  0  0  0  0  0  0
   19.1524   20.1041   23.7508 C   0  0  0  0  0  0  0  0  0  0  0  0
   19.2798   20.0175   24.8389 H   0  0  0  0  0  0  0  0  0  0  0  0
   18.3665   20.8549   23.5894 H   0  0  0  0  0  0  0  0  0  0  0  0
   20.4703   20.6008   23.1085 C   0  0  0  0  0  0  0  0  0  0  0  0
   21.2778   19.8828   23.3046 H   0  0  0  0  0  0  0  0  0  0  0  0
   20.3498   20.6542   22.0176 H   0  0  0  0  0  0  0  0  0  0  0  0
   20.8847   21.9880   23.6480 C   0  0  0  0  0  0  0  0  0  0  0  0
   21.0059   21.9406   24.7394 H   0  0  0  0  0  0  0  0  0  0  0  0
   20.0870   22.7175   23.4494 H   0  0  0  0  0  0  0  0  0  0  0  0
   22.1999   22.4815   23.0080 C   0  0  0  0  0  0  0  0  0  0  0  0
   23.0259   21.7899   23.2191 H   0  0  0  0  0  0  0  0  0  0  0  0
   22.4772   23.4674   23.4031 H   0  0  0  0  0  0  0  0  0  0  0  0
   22.0994   22.5716   21.9185 H   0  0  0  0  0  0  0  0  0  0  0  0
   20.1962   15.1798   23.2714 C   0  0  0  0  0  0  0  0  0  0  0  0
   20.3301   15.1234   24.3540 H   0  0  0  0  0  0  0  0  0  0  0  0
   19.8374   14.2197   22.8937 H   0  0  0  0  0  0  0  0  0  0  0  0
   21.1453   15.4327   22.7937 H   0  0  0  0  0  0  0  0  0  0  0  0
  1  2  1  0  0  0  0
  1  3  1  0  0  0  0
  1  4  1  0  0  0  0
  4  5  1  0  0  0  0
  4  6  1  0  0  0  0
  4  7  1  0  0  0  0
  7  8  1  0  0  0  0
  7  9  1  0  0  0  0
  7 10  1  0  0  0  0
 10 11  1  0  0  0  0
 10 12  1  0  0  0  0
 10 13  1  0  0  0  0
 13 14  1  0  0  0  0
 13 15  1  0  0  0  0
 13 16  1  0  0  0  0
 16 17  1  0  0  0  0
 16 18  1  0  0  0  0
 16 19  1  0  0  0  0
 19 20  1  0  0  0  0
 19 21  1  0  0  0  0
 19 22  1  0  0  0  0
  1 23  1  0  0  0  0
 23 24  1  0  0  0  0
 23 25  1  0  0  0  0
 23 26  1  0  0  0  0
M  END
> <VConfSearch Rank>
627

> <Conf_Id>
46

> <Delta U+W>
0.496

> <U+W>
22.338

> <U>
71.138

> <W>
-48.799

> <W(PB)>
-51.136

> <W(SA)>
2.337

> <Valence>
2.016

> <Coulomb>
68.932

> <VdW>
0.190

> <VdW6>
-5.902

> <VdW12>
6.092

> <Bond>
0.149

> <Angle>
0.477

> <Pdih>
1.390

> <Idih>
0.000

> <Tether>
0.000

$$$$
VeraChem MOL file


 26 25  0  0  0  0  0  0  0  0999 V2000     
   21.3789   19.4451   25.9248 N   0  3  0  0  0  0  0  0  0  0  0  0
   20.9173   19.0522   26.7598 H   0  0  0  0  0  0  0  0  0  0  0  0
   21.2466   20.4662   25.9930 H   0  0  0  0  0  0  0  0  0  0  0  0
   20.7220   18.9154   24.6661 C   0  0  0  0  0  0  0  0  0  0  0  0
   20.8751   17.8337   24.6376 H   0  0  0  0  0  0  0  0  0  0  0  0
   21.2364   19.3593   23.8104 H   0  0  0  0  0  0  0  0  0  0  0  0
   19.2151   19.2276   24.5882 C   0  0  0  0  0  0  0  0  0  0  0  0
   18.7167   18.8144   25.4753 H   0  0  0  0  0  0  0  0  0  0  0  0
   19.0610   20.3145   24.6186 H   0  0  0  0  0  0  0  0  0  0  0  0
   18.5485   18.6434   23.3203 C   0  0  0  0  0  0  0  0  0  0  0  0
   17.4661   18.8242   23.3764 H   0  0  0  0  0  0  0  0  0  0  0  0
   18.6805   17.5525   23.3066 H   0  0  0  0  0  0  0  0  0  0  0  0
   19.0988   19.2527   22.0081 C   0  0  0  0  0  0  0  0  0  0  0  0
   18.9957   20.3463   22.0393 H   0  0  0  0  0  0  0  0  0  0  0  0
   20.1716   19.0368   21.9145 H   0  0  0  0  0  0  0  0  0  0  0  0
   18.3620   18.7026   20.7665 C   0  0  0  0  0  0  0  0  0  0  0  0
   17.2876   18.9207   20.8450 H   0  0  0  0  0  0  0  0  0  0  0  0
   18.4612   17.6086   20.7306 H   0  0  0  0  0  0  0  0  0  0  0  0
   18.9127   19.3097   19.4584 C   0  0  0  0  0  0  0  0  0  0  0  0
   18.7965   20.4013   19.4500 H   0  0  0  0  0  0  0  0  0  0  0  0
   18.3770   18.9075   18.5887 H   0  0  0  0  0  0  0  0  0  0  0  0
   19.9786   19.0784   19.3336 H   0  0  0  0  0  0  0  0  0  0  0  0
   22.8612   19.0977   25.9208 C   0  0  0  0  0  0  0  0  0  0  0  0
   23.3222   19.4846   26.8325 H   0  0  0  0  0  0  0  0  0  0  0  0
   22.9756   18.0122   25.8817 H   0  0  0  0  0  0  0  0  0  0  0  0
   23.3342   19.5516   25.0472 H   0  0  0  0  0  0  0  0  0  0  0  0
  1  2  1  0  0  0  0
  1  3  1  0  0  0  0
  1  4  1  0  0  0  0
  4  5  1  0  0  0  0
  4  6  1  0  0  0  0
  4  7  1  0  0  0  0
  7  8  1  0  0  0  0
  7  9  1  0  0  0  0
  7 10  1  0  0  0  0
 10 11  1  0  0  0  0
 10 12  1  0  0  0  0
 10 13  1  0  0  0  0
 13 14  1  0  0  0  0
 13 15  1  0  0  0  0
 13 16  1  0  0  0  0
 16 17  1  0  0  0  0
 16 18  1  0  0  0  0
 16 19  1  0  0  0  0
 19 20  1  0  0  0  0
 19 21  1  0  0  0  0
 19 22  1  0  0  0  0
  1 23  1  0  0  0  0
 23 24  1  0  0  0  0
 23 25  1  0  0  0  0
 23 26  1  0  0  0  0
M  END
> <VConfSearch Rank>
628

> <Conf_Id>
45

> <Delta U+W>
0.471

> <U+W>
22.313

> <U>
71.138

> <W>
-48.825

> <W(PB)>
-51.169

> <W(SA)>
2.344

> <Valence>
2.016

> <Coulomb>
68.932

> <VdW>
0.190

> <VdW6>
-5.902

> <VdW12>
6.092

> <Bond>
0.149

> <Angle>
0.477

> <Pdih>
1.390

> <Idih>
0.000

> <Tether>
0.000

$$$$
VeraChem MOL file


 26 25  0  0  0  0  0  0  0  0999 V2000     
   22.2598   17.8334   22.6464 N   0  3  0  0  0  0  0  0  0  0  0  0
   21.4741   17.1689   22.5800 H   0  0  0  0  0  0  0  0  0  0  0  0
   22.4999   17.8789   23.6488 H   0  0  0  0  0  0  0  0  0  0  0  0
   21.8287   19.2003   22.1506 C   0  0  0  0  0  0  0  0  0  0  0  0
   21.5746   19.1101   21.0915 H   0  0  0  0  0  0  0  0  0  0  0  0
   22.6881   19.8696   22.2395 H   0  0  0  0  0  0  0  0  0  0  0  0
   20.6345   19.7962   22.9216 C   0  0  0  0  0  0  0  0  0  0  0  0
   20.9005   19.8841   23.9825 H   0  0  0  0  0  0  0  0  0  0  0  0
   20.4593   20.8164   22.5552 H   0  0  0  0  0  0  0  0  0  0  0  0
   19.3407   18.9606   22.7531 C   0  0  0  0  0  0  0  0  0  0  0  0
   19.4733   17.9651   23.1975 H   0  0  0  0  0  0  0  0  0  0  0  0
   19.1574   18.7994   21.6816 H   0  0  0  0  0  0  0  0  0  0  0  0
   18.0885   19.6317   23.3693 C   0  0  0  0  0  0  0  0  0  0  0  0
   17.9360   20.6187   22.9113 H   0  0  0  0  0  0  0  0  0  0  0  0
   17.2065   19.0313   23.1063 H   0  0  0  0  0  0  0  0  0  0  0  0
   18.1578   19.7758   24.9083 C   0  0  0  0  0  0  0  0  0  0  0  0
   18.9888   20.4357   25.1906 H   0  0  0  0  0  0  0  0  0  0  0  0
   18.3594   18.7964   25.3643 H   0  0  0  0  0  0  0  0  0  0  0  0
   16.8458   20.3482   25.4862 C   0  0  0  0  0  0  0  0  0  0  0  0
   16.6322   21.3419   25.0712 H   0  0  0  0  0  0  0  0  0  0  0  0
   16.9132   20.4465   26.5775 H   0  0  0  0  0  0  0  0  0  0  0  0
   15.9948   19.6929   25.2595 H   0  0  0  0  0  0  0  0  0  0  0  0
   23.4479   17.3381   21.8337 C   0  0  0  0  0  0  0  0  0  0  0  0
   24.2767   18.0408   21.9445 H   0  0  0  0  0  0  0  0  0  0  0  0
   23.7474   16.3537   22.2004 H   0  0  0  0  0  0  0  0  0  0  0  0
   23.1599   17.2682   20.7825 H   0  0  0  0  0  0  0  0  0  0  0  0
  1  2  1  0  0  0  0
  1  3  1  0  0  0  0
  1  4  1  0  0  0  0
  4  5  1  0  0  0  0
  4  6  1  0  0  0  0
  4  7  1  0  0  0  0
  7  8  1  0  0  0  0
  7  9  1  0  0  0  0
  7 10  1  0  0  0  0
 10 11  1  0  0  0  0
 10 12  1  0  0  0  0
 10 13  1  0  0  0  0
 13 14  1  0  0  0  0
 13 15  1  0  0  0  0
 13 16  1  0  0  0  0
 16 17  1  0  0  0  0
 16 18  1  0  0  0  0
 16 19  1  0  0  0  0
 19 20  1  0  0  0  0
 19 21  1  0  0  0  0
 19 22  1  0  0  0  0
  1 23  1  0  0  0  0
 23 24  1  0  0  0  0
 23 25  1  0  0  0  0
 23 26  1  0  0  0  0
M  END
> <VConfSearch Rank>
629

> <Conf_Id>
143

> <Delta U+W>
0.915

> <U+W>
22.757

> <U>
71.994

> <W>
-49.237

> <W(PB)>
-51.537

> <W(SA)>
2.300

> <Valence>
2.376

> <Coulomb>
69.315

> <VdW>
0.303

> <VdW6>
-6.508

> <VdW12>
6.810

> <Bond>
0.182

> <Angle>
0.660

> <Pdih>
1.534

> <Idih>
0.000

> <Tether>
0.000

$$$$
VeraChem MOL file


 26 25  0  0  0  0  0  0  0  0999 V2000     
   18.3281   20.4512   21.9040 N   0  3  0  0  0  0  0  0  0  0  0  0
   17.8850   20.5154   22.8328 H   0  0  0  0  0  0  0  0  0  0  0  0
   17.9227   19.6117   21.4619 H   0  0  0  0  0  0  0  0  0  0  0  0
   19.8289   20.2897   22.0518 C   0  0  0  0  0  0  0  0  0  0  0  0
   20.2205   21.1904   22.5311 H   0  0  0  0  0  0  0  0  0  0  0  0
   20.2524   20.2270   21.0461 H   0  0  0  0  0  0  0  0  0  0  0  0
   20.2502   19.0465   22.8601 C   0  0  0  0  0  0  0  0  0  0  0  0
   19.8306   18.1453   22.3938 H   0  0  0  0  0  0  0  0  0  0  0  0
   21.3419   18.9608   22.7972 H   0  0  0  0  0  0  0  0  0  0  0  0
   19.8253   19.1268   24.3468 C   0  0  0  0  0  0  0  0  0  0  0  0
   18.7461   19.3185   24.4094 H   0  0  0  0  0  0  0  0  0  0  0  0
   20.3162   19.9890   24.8192 H   0  0  0  0  0  0  0  0  0  0  0  0
   20.1298   17.8475   25.1689 C   0  0  0  0  0  0  0  0  0  0  0  0
   19.7462   18.0098   26.1858 H   0  0  0  0  0  0  0  0  0  0  0  0
   19.5585   16.9977   24.7708 H   0  0  0  0  0  0  0  0  0  0  0  0
   21.6330   17.4811   25.2743 C   0  0  0  0  0  0  0  0  0  0  0  0
   21.8217   17.0615   26.2725 H   0  0  0  0  0  0  0  0  0  0  0  0
   22.2531   18.3857   25.2058 H   0  0  0  0  0  0  0  0  0  0  0  0
   22.0856   16.4372   24.2264 C   0  0  0  0  0  0  0  0  0  0  0  0
   21.9468   16.7944   23.2001 H   0  0  0  0  0  0  0  0  0  0  0  0
   21.5221   15.5017   24.3369 H   0  0  0  0  0  0  0  0  0  0  0  0
   23.1499   16.2010   24.3548 H   0  0  0  0  0  0  0  0  0  0  0  0
   18.0192   21.6925   21.0787 C   0  0  0  0  0  0  0  0  0  0  0  0
   18.4709   21.5877   20.0898 H   0  0  0  0  0  0  0  0  0  0  0  0
   16.9363   21.7970   20.9803 H   0  0  0  0  0  0  0  0  0  0  0  0
   18.4303   22.5701   21.5823 H   0  0  0  0  0  0  0  0  0  0  0  0
  1  2  1  0  0  0  0
  1  3  1  0  0  0  0
  1  4  1  0  0  0  0
  4  5  1  0  0  0  0
  4  6  1  0  0  0  0
  4  7  1  0  0  0  0
  7  8  1  0  0  0  0
  7  9  1  0  0  0  0
  7 10  1  0  0  0  0
 10 11  1  0  0  0  0
 10 12  1  0  0  0  0
 10 13  1  0  0  0  0
 13 14  1  0  0  0  0
 13 15  1  0  0  0  0
 13 16  1  0  0  0  0
 16 17  1  0  0  0  0
 16 18  1  0  0  0  0
 16 19  1  0  0  0  0
 19 20  1  0  0  0  0
 19 21  1  0  0  0  0
 19 22  1  0  0  0  0
  1 23  1  0  0  0  0
 23 24  1  0  0  0  0
 23 25  1  0  0  0  0
 23 26  1  0  0  0  0
M  END
> <VConfSearch Rank>
630

> <Conf_Id>
76

> <Delta U+W>
3.468

> <U+W>
25.310

> <U>
74.594

> <W>
-49.283

> <W(PB)>
-51.537

> <W(SA)>
2.253

> <Valence>
4.886

> <Coulomb>
69.332

> <VdW>
0.376

> <VdW6>
-7.329

> <VdW12>
7.705

> <Bond>
0.232

> <Angle>
1.251

> <Pdih>
3.403

> <Idih>
0.000

> <Tether>
0.000

$$$$
VeraChem MOL file


 26 25  0  0  0  0  0  0  0  0999 V2000     
   21.5601   18.7609   25.6817 N   0  3  0  0  0  0  0  0  0  0  0  0
   20.7634   18.1783   25.9825 H   0  0  0  0  0  0  0  0  0  0  0  0
   21.4180   19.6764   26.1362 H   0  0  0  0  0  0  0  0  0  0  0  0
   21.5534   18.9188   24.1744 C   0  0  0  0  0  0  0  0  0  0  0  0
   21.6988   17.9296   23.7331 H   0  0  0  0  0  0  0  0  0  0  0  0
   22.4044   19.5470   23.8993 H   0  0  0  0  0  0  0  0  0  0  0  0
   20.2537   19.5412   23.6328 C   0  0  0  0  0  0  0  0  0  0  0  0
   19.4037   18.9192   23.9347 H   0  0  0  0  0  0  0  0  0  0  0  0
   20.1050   20.5272   24.0928 H   0  0  0  0  0  0  0  0  0  0  0  0
   20.3004   19.6911   22.0931 C   0  0  0  0  0  0  0  0  0  0  0  0
   20.5072   18.7213   21.6197 H   0  0  0  0  0  0  0  0  0  0  0  0
   21.1507   20.3395   21.8393 H   0  0  0  0  0  0  0  0  0  0  0  0
   19.0126   20.3132   21.4922 C   0  0  0  0  0  0  0  0  0  0  0  0
   18.5456   20.9967   22.2146 H   0  0  0  0  0  0  0  0  0  0  0  0
   19.3026   20.9402   20.6376 H   0  0  0  0  0  0  0  0  0  0  0  0
   17.9712   19.2843   20.9819 C   0  0  0  0  0  0  0  0  0  0  0  0
   18.4166   18.6737   20.1841 H   0  0  0  0  0  0  0  0  0  0  0  0
   17.1400   19.8322   20.5163 H   0  0  0  0  0  0  0  0  0  0  0  0
   17.4002   18.3576   22.0776 C   0  0  0  0  0  0  0  0  0  0  0  0
   17.0065   18.9376   22.9223 H   0  0  0  0  0  0  0  0  0  0  0  0
   18.1643   17.6659   22.4528 H   0  0  0  0  0  0  0  0  0  0  0  0
   16.5788   17.7503   21.6760 H   0  0  0  0  0  0  0  0  0  0  0  0
   22.8754   18.1401   26.1316 C   0  0  0  0  0  0  0  0  0  0  0  0
   22.9879   17.1593   25.6643 H   0  0  0  0  0  0  0  0  0  0  0  0
   23.7004   18.7899   25.8316 H   0  0  0  0  0  0  0  0  0  0  0  0
   22.8672   18.0321   27.2185 H   0  0  0  0  0  0  0  0  0  0  0  0
  1  2  1  0  0  0  0
  1  3  1  0  0  0  0
  1  4  1  0  0  0  0
  4  5  1  0  0  0  0
  4  6  1  0  0  0  0
  4  7  1  0  0  0  0
  7  8  1  0  0  0  0
  7  9  1  0  0  0  0
  7 10  1  0  0  0  0
 10 11  1  0  0  0  0
 10 12  1  0  0  0  0
 10 13  1  0  0  0  0
 13 14  1  0  0  0  0
 13 15  1  0  0  0  0
 13 16  1  0  0  0  0
 16 17  1  0  0  0  0
 16 18  1  0  0  0  0
 16 19  1  0  0  0  0
 19 20  1  0  0  0  0
 19 21  1  0  0  0  0
 19 22  1  0  0  0  0
  1 23  1  0  0  0  0
 23 24  1  0  0  0  0
 23 25  1  0  0  0  0
 23 26  1  0  0  0  0
M  END
> <VConfSearch Rank>
631

> <Conf_Id>
123

> <Delta U+W>
3.101

> <U+W>
24.943

> <U>
74.070

> <W>
-49.127

> <W(PB)>
-51.421

> <W(SA)>
2.295

> <Valence>
4.690

> <Coulomb>
69.115

> <VdW>
0.266

> <VdW6>
-6.809

> <VdW12>
7.075

> <Bond>
0.212

> <Angle>
1.133

> <Pdih>
3.345

> <Idih>
0.000

> <Tether>
0.000

$$$$
VeraChem MOL file


 26 25  0  0  0  0  0  0  0  0999 V2000     
   19.3449   17.2793   25.0641 N   0  3  0  0  0  0  0  0  0  0  0  0
   19.9337   16.4676   24.8210 H   0  0  0  0  0  0  0  0  0  0  0  0
   18.5853   17.2886   24.3669 H   0  0  0  0  0  0  0  0  0  0  0  0
   20.1544   18.5581   24.9694 C   0  0  0  0  0  0  0  0  0  0  0  0
   20.9438   18.5047   25.7235 H   0  0  0  0  0  0  0  0  0  0  0  0
   19.4966   19.3933   25.2228 H   0  0  0  0  0  0  0  0  0  0  0  0
   20.7870   18.7984   23.5844 C   0  0  0  0  0  0  0  0  0  0  0  0
   21.4349   19.6795   23.6526 H   0  0  0  0  0  0  0  0  0  0  0  0
   21.4423   17.9543   23.3316 H   0  0  0  0  0  0  0  0  0  0  0  0
   19.7277   18.9957   22.4700 C   0  0  0  0  0  0  0  0  0  0  0  0
   19.0087   19.7747   22.7592 H   0  0  0  0  0  0  0  0  0  0  0  0
   19.1482   18.0683   22.3705 H   0  0  0  0  0  0  0  0  0  0  0  0
   20.3450   19.3300   21.0867 C   0  0  0  0  0  0  0  0  0  0  0  0
   21.3433   18.8802   20.9953 H   0  0  0  0  0  0  0  0  0  0  0  0
   19.7320   18.8477   20.3127 H   0  0  0  0  0  0  0  0  0  0  0  0
   20.4091   20.8428   20.7538 C   0  0  0  0  0  0  0  0  0  0  0  0
   19.3932   21.2617   20.7468 H   0  0  0  0  0  0  0  0  0  0  0  0
   20.7920   20.9584   19.7301 H   0  0  0  0  0  0  0  0  0  0  0  0
   21.2969   21.6689   21.7103 C   0  0  0  0  0  0  0  0  0  0  0  0
   22.3050   21.2410   21.7844 H   0  0  0  0  0  0  0  0  0  0  0  0
   20.8620   21.7176   22.7161 H   0  0  0  0  0  0  0  0  0  0  0  0
   21.3962   22.6998   21.3466 H   0  0  0  0  0  0  0  0  0  0  0  0
   18.7779   17.1274   26.4688 C   0  0  0  0  0  0  0  0  0  0  0  0
   18.1341   17.9814   26.6904 H   0  0  0  0  0  0  0  0  0  0  0  0
   18.1974   16.2037   26.5229 H   0  0  0  0  0  0  0  0  0  0  0  0
   19.6009   17.0884   27.1858 H   0  0  0  0  0  0  0  0  0  0  0  0
  1  2  1  0  0  0  0
  1  3  1  0  0  0  0
  1  4  1  0  0  0  0
  4  5  1  0  0  0  0
  4  6  1  0  0  0  0
  4  7  1  0  0  0  0
  7  8  1  0  0  0  0
  7  9  1  0  0  0  0
  7 10  1  0  0  0  0
 10 11  1  0  0  0  0
 10 12  1  0  0  0  0
 10 13  1  0  0  0  0
 13 14  1  0  0  0  0
 13 15  1  0  0  0  0
 13 16  1  0  0  0  0
 16 17  1  0  0  0  0
 16 18  1  0  0  0  0
 16 19  1  0  0  0  0
 19 20  1  0  0  0  0
 19 21  1  0  0  0  0
 19 22  1  0  0  0  0
  1 23  1  0  0  0  0
 23 24  1  0  0  0  0
 23 25  1  0  0  0  0
 23 26  1  0  0  0  0
M  END
> <VConfSearch Rank>
632

> <Conf_Id>
111

> <Delta U+W>
3.383

> <U+W>
25.225

> <U>
74.516

> <W>
-49.292

> <W(PB)>
-51.558

> <W(SA)>
2.266

> <Valence>
4.842

> <Coulomb>
69.333

> <VdW>
0.342

> <VdW6>
-7.369

> <VdW12>
7.711

> <Bond>
0.232

> <Angle>
1.153

> <Pdih>
3.457

> <Idih>
0.000

> <Tether>
0.000

$$$$
VeraChem MOL file


 26 25  0  0  0  0  0  0  0  0999 V2000     
   20.8524   17.3152   24.6325 N   0  3  0  0  0  0  0  0  0  0  0  0
   20.2285   17.0253   25.4015 H   0  0  0  0  0  0  0  0  0  0  0  0
   21.0653   18.3087   24.8081 H   0  0  0  0  0  0  0  0  0  0  0  0
   20.1432   17.1655   23.3009 C   0  0  0  0  0  0  0  0  0  0  0  0
   19.9260   16.1038   23.1590 H   0  0  0  0  0  0  0  0  0  0  0  0
   20.8341   17.4777   22.5144 H   0  0  0  0  0  0  0  0  0  0  0  0
   18.8333   17.9741   23.1968 C   0  0  0  0  0  0  0  0  0  0  0  0
   18.3693   17.7678   22.2231 H   0  0  0  0  0  0  0  0  0  0  0  0
   18.1267   17.6105   23.9546 H   0  0  0  0  0  0  0  0  0  0  0  0
   19.0166   19.5043   23.3608 C   0  0  0  0  0  0  0  0  0  0  0  0
   19.3989   19.7303   24.3650 H   0  0  0  0  0  0  0  0  0  0  0  0
   18.0261   19.9734   23.2991 H   0  0  0  0  0  0  0  0  0  0  0  0
   19.9516   20.1253   22.2916 C   0  0  0  0  0  0  0  0  0  0  0  0
   20.9357   19.6406   22.3364 H   0  0  0  0  0  0  0  0  0  0  0  0
   19.5527   19.9223   21.2882 H   0  0  0  0  0  0  0  0  0  0  0  0
   20.1595   21.6496   22.4654 C   0  0  0  0  0  0  0  0  0  0  0  0
   20.9192   21.9851   21.7456 H   0  0  0  0  0  0  0  0  0  0  0  0
   20.5697   21.8580   23.4634 H   0  0  0  0  0  0  0  0  0  0  0  0
   18.8717   22.4769   22.2490 C   0  0  0  0  0  0  0  0  0  0  0  0
   18.1232   22.2701   23.0237 H   0  0  0  0  0  0  0  0  0  0  0  0
   18.4234   22.2616   21.2704 H   0  0  0  0  0  0  0  0  0  0  0  0
   19.0949   23.5511   22.2862 H   0  0  0  0  0  0  0  0  0  0  0  0
   22.1290   16.4861   24.6367 C   0  0  0  0  0  0  0  0  0  0  0  0
   22.6297   16.6040   25.6002 H   0  0  0  0  0  0  0  0  0  0  0  0
   21.8751   15.4355   24.4791 H   0  0  0  0  0  0  0  0  0  0  0  0
   22.7849   16.8326   23.8351 H   0  0  0  0  0  0  0  0  0  0  0  0
  1  2  1  0  0  0  0
  1  3  1  0  0  0  0
  1  4  1  0  0  0  0
  4  5  1  0  0  0  0
  4  6  1  0  0  0  0
  4  7  1  0  0  0  0
  7  8  1  0  0  0  0
  7  9  1  0  0  0  0
  7 10  1  0  0  0  0
 10 11  1  0  0  0  0
 10 12  1  0  0  0  0
 10 13  1  0  0  0  0
 13 14  1  0  0  0  0
 13 15  1  0  0  0  0
 13 16  1  0  0  0  0
 16 17  1  0  0  0  0
 16 18  1  0  0  0  0
 16 19  1  0  0  0  0
 19 20  1  0  0  0  0
 19 21  1  0  0  0  0
 19 22  1  0  0  0  0
  1 23  1  0  0  0  0
 23 24  1  0  0  0  0
 23 25  1  0  0  0  0
 23 26  1  0  0  0  0
M  END
> <VConfSearch Rank>
633

> <Conf_Id>
126

> <Delta U+W>
1.519

> <U+W>
23.361

> <U>
72.579

> <W>
-49.218

> <W(PB)>
-51.496

> <W(SA)>
2.279

> <Valence>
2.678

> <Coulomb>
69.622

> <VdW>
0.279

> <VdW6>
-7.328

> <VdW12>
7.608

> <Bond>
0.212

> <Angle>
0.911

> <Pdih>
1.555

> <Idih>
0.000

> <Tether>
0.000

$$$$
VeraChem MOL file


 26 25  0  0  0  0  0  0  0  0999 V2000     
   20.1175   19.4064   25.6596 N   0  3  0  0  0  0  0  0  0  0  0  0
   19.3148   19.0106   25.1476 H   0  0  0  0  0  0  0  0  0  0  0  0
   19.8026   20.3286   25.9986 H   0  0  0  0  0  0  0  0  0  0  0  0
   21.2986   19.5704   24.7232 C   0  0  0  0  0  0  0  0  0  0  0  0
   21.6042   18.5762   24.3893 H   0  0  0  0  0  0  0  0  0  0  0  0
   22.1208   20.0016   25.2999 H   0  0  0  0  0  0  0  0  0  0  0  0
   21.0065   20.4653   23.5007 C   0  0  0  0  0  0  0  0  0  0  0  0
   20.7577   21.4767   23.8484 H   0  0  0  0  0  0  0  0  0  0  0  0
   21.9265   20.5637   22.9093 H   0  0  0  0  0  0  0  0  0  0  0  0
   19.8671   19.9431   22.5890 C   0  0  0  0  0  0  0  0  0  0  0  0
   19.7259   20.6656   21.7747 H   0  0  0  0  0  0  0  0  0  0  0  0
   18.9211   19.9229   23.1460 H   0  0  0  0  0  0  0  0  0  0  0  0
   20.1553   18.5411   21.9937 C   0  0  0  0  0  0  0  0  0  0  0  0
   21.0877   18.5700   21.4132 H   0  0  0  0  0  0  0  0  0  0  0  0
   20.3204   17.8223   22.8070 H   0  0  0  0  0  0  0  0  0  0  0  0
   19.0095   18.0025   21.1029 C   0  0  0  0  0  0  0  0  0  0  0  0
   18.0763   17.9598   21.6819 H   0  0  0  0  0  0  0  0  0  0  0  0
   19.2419   16.9664   20.8194 H   0  0  0  0  0  0  0  0  0  0  0  0
   18.7862   18.8303   19.8166 C   0  0  0  0  0  0  0  0  0  0  0  0
   19.7138   18.9159   19.2358 H   0  0  0  0  0  0  0  0  0  0  0  0
   18.4276   19.8418   20.0438 H   0  0  0  0  0  0  0  0  0  0  0  0
   18.0337   18.3507   19.1774 H   0  0  0  0  0  0  0  0  0  0  0  0
   20.5019   18.5088   26.8274 C   0  0  0  0  0  0  0  0  0  0  0  0
   20.8006   17.5303   26.4451 H   0  0  0  0  0  0  0  0  0  0  0  0
   21.3331   18.9634   27.3709 H   0  0  0  0  0  0  0  0  0  0  0  0
   19.6425   18.3985   27.4925 H   0  0  0  0  0  0  0  0  0  0  0  0
  1  2  1  0  0  0  0
  1  3  1  0  0  0  0
  1  4  1  0  0  0  0
  4  5  1  0  0  0  0
  4  6  1  0  0  0  0
  4  7  1  0  0  0  0
  7  8  1  0  0  0  0
  7  9  1  0  0  0  0
  7 10  1  0  0  0  0
 10 11  1  0  0  0  0
 10 12  1  0  0  0  0
 10 13  1  0  0  0  0
 13 14  1  0  0  0  0
 13 15  1  0  0  0  0
 13 16  1  0  0  0  0
 16 17  1  0  0  0  0
 16 18  1  0  0  0  0
 16 19  1  0  0  0  0
 19 20  1  0  0  0  0
 19 21  1  0  0  0  0
 19 22  1  0  0  0  0
  1 23  1  0  0  0  0
 23 24  1  0  0  0  0
 23 25  1  0  0  0  0
 23 26  1  0  0  0  0
M  END
> <VConfSearch Rank>
634

> <Conf_Id>
134

> <Delta U+W>
1.464

> <U+W>
23.306

> <U>
72.579

> <W>
-49.273

> <W(PB)>
-51.540

> <W(SA)>
2.267

> <Valence>
2.677

> <Coulomb>
69.622

> <VdW>
0.280

> <VdW6>
-7.328

> <VdW12>
7.608

> <Bond>
0.212

> <Angle>
0.911

> <Pdih>
1.555

> <Idih>
0.000

> <Tether>
0.000

$$$$
VeraChem MOL file


 26 25  0  0  0  0  0  0  0  0999 V2000     
   21.6182   16.9502   24.3409 N   0  3  0  0  0  0  0  0  0  0  0  0
   21.2568   17.2415   25.2624 H   0  0  0  0  0  0  0  0  0  0  0  0
   22.5735   17.3363   24.2859 H   0  0  0  0  0  0  0  0  0  0  0  0
   20.7569   17.5266   23.2351 C   0  0  0  0  0  0  0  0  0  0  0  0
   19.7554   17.1002   23.3332 H   0  0  0  0  0  0  0  0  0  0  0  0
   21.1771   17.2025   22.2796 H   0  0  0  0  0  0  0  0  0  0  0  0
   20.6709   19.0632   23.2686 C   0  0  0  0  0  0  0  0  0  0  0  0
   20.2653   19.3774   24.2386 H   0  0  0  0  0  0  0  0  0  0  0  0
   21.6803   19.4875   23.1856 H   0  0  0  0  0  0  0  0  0  0  0  0
   19.7836   19.6026   22.1222 C   0  0  0  0  0  0  0  0  0  0  0  0
   18.7632   19.2101   22.2261 H   0  0  0  0  0  0  0  0  0  0  0  0
   20.1602   19.2129   21.1662 H   0  0  0  0  0  0  0  0  0  0  0  0
   19.7497   21.1508   22.0388 C   0  0  0  0  0  0  0  0  0  0  0  0
   20.7619   21.5192   21.8219 H   0  0  0  0  0  0  0  0  0  0  0  0
   19.1333   21.4437   21.1777 H   0  0  0  0  0  0  0  0  0  0  0  0
   19.2169   21.8713   23.3038 C   0  0  0  0  0  0  0  0  0  0  0  0
   19.2416   22.9553   23.1249 H   0  0  0  0  0  0  0  0  0  0  0  0
   19.8887   21.6931   24.1541 H   0  0  0  0  0  0  0  0  0  0  0  0
   17.7752   21.4630   23.6832 C   0  0  0  0  0  0  0  0  0  0  0  0
   17.0875   21.6147   22.8411 H   0  0  0  0  0  0  0  0  0  0  0  0
   17.4133   22.0671   24.5251 H   0  0  0  0  0  0  0  0  0  0  0  0
   17.7216   20.4098   23.9858 H   0  0  0  0  0  0  0  0  0  0  0  0
   21.6491   15.4317   24.2352 C   0  0  0  0  0  0  0  0  0  0  0  0
   22.0655   15.1475   23.2663 H   0  0  0  0  0  0  0  0  0  0  0  0
   22.2725   15.0294   25.0369 H   0  0  0  0  0  0  0  0  0  0  0  0
   20.6322   15.0443   24.3291 H   0  0  0  0  0  0  0  0  0  0  0  0
  1  2  1  0  0  0  0
  1  3  1  0  0  0  0
  1  4  1  0  0  0  0
  4  5  1  0  0  0  0
  4  6  1  0  0  0  0
  4  7  1  0  0  0  0
  7  8  1  0  0  0  0
  7  9  1  0  0  0  0
  7 10  1  0  0  0  0
 10 11  1  0  0  0  0
 10 12  1  0  0  0  0
 10 13  1  0  0  0  0
 13 14  1  0  0  0  0
 13 15  1  0  0  0  0
 13 16  1  0  0  0  0
 16 17  1  0  0  0  0
 16 18  1  0  0  0  0
 16 19  1  0  0  0  0
 19 20  1  0  0  0  0
 19 21  1  0  0  0  0
 19 22  1  0  0  0  0
  1 23  1  0  0  0  0
 23 24  1  0  0  0  0
 23 25  1  0  0  0  0
 23 26  1  0  0  0  0
M  END
> <VConfSearch Rank>
635

> <Conf_Id>
30

> <Delta U+W>
0.910

> <U+W>
22.752

> <U>
71.870

> <W>
-49.118

> <W(PB)>
-51.409

> <W(SA)>
2.290

> <Valence>
2.682

> <Coulomb>
68.933

> <VdW>
0.255

> <VdW6>
-6.833

> <VdW12>
7.088

> <Bond>
0.205

> <Angle>
1.003

> <Pdih>
1.473

> <Idih>
0.000

> <Tether>
0.000

$$$$
VeraChem MOL file


 26 25  0  0  0  0  0  0  0  0999 V2000     
   21.1115   21.0659   21.7201 N   0  3  0  0  0  0  0  0  0  0  0  0
   20.2818   21.4011   21.2062 H   0  0  0  0  0  0  0  0  0  0  0  0
   21.4875   20.2874   21.1567 H   0  0  0  0  0  0  0  0  0  0  0  0
   20.7101   20.5706   23.0950 C   0  0  0  0  0  0  0  0  0  0  0  0
   20.3110   21.4207   23.6541 H   0  0  0  0  0  0  0  0  0  0  0  0
   21.6125   20.2186   23.6012 H   0  0  0  0  0  0  0  0  0  0  0  0
   19.6653   19.4409   23.0542 C   0  0  0  0  0  0  0  0  0  0  0  0
   18.7665   19.7932   22.5310 H   0  0  0  0  0  0  0  0  0  0  0  0
   20.0697   18.6009   22.4753 H   0  0  0  0  0  0  0  0  0  0  0  0
   19.2880   18.9711   24.4787 C   0  0  0  0  0  0  0  0  0  0  0  0
   18.9600   19.8403   25.0656 H   0  0  0  0  0  0  0  0  0  0  0  0
   20.1788   18.5819   24.9897 H   0  0  0  0  0  0  0  0  0  0  0  0
   18.1570   17.9102   24.5038 C   0  0  0  0  0  0  0  0  0  0  0  0
   17.9268   17.6656   25.5499 H   0  0  0  0  0  0  0  0  0  0  0  0
   17.2409   18.3549   24.0913 H   0  0  0  0  0  0  0  0  0  0  0  0
   18.4628   16.5972   23.7385 C   0  0  0  0  0  0  0  0  0  0  0  0
   18.5753   16.8002   22.6651 H   0  0  0  0  0  0  0  0  0  0  0  0
   17.5937   15.9305   23.8275 H   0  0  0  0  0  0  0  0  0  0  0  0
   19.7135   15.8560   24.2634 C   0  0  0  0  0  0  0  0  0  0  0  0
   20.6281   16.4358   24.0878 H   0  0  0  0  0  0  0  0  0  0  0  0
   19.8313   14.8914   23.7530 H   0  0  0  0  0  0  0  0  0  0  0  0
   19.6323   15.6585   25.3401 H   0  0  0  0  0  0  0  0  0  0  0  0
   22.1436   22.1775   21.8508 C   0  0  0  0  0  0  0  0  0  0  0  0
   22.4239   22.5251   20.8539 H   0  0  0  0  0  0  0  0  0  0  0  0
   21.7122   23.0028   22.4215 H   0  0  0  0  0  0  0  0  0  0  0  0
   23.0246   21.7906   22.3677 H   0  0  0  0  0  0  0  0  0  0  0  0
  1  2  1  0  0  0  0
  1  3  1  0  0  0  0
  1  4  1  0  0  0  0
  4  5  1  0  0  0  0
  4  6  1  0  0  0  0
  4  7  1  0  0  0  0
  7  8  1  0  0  0  0
  7  9  1  0  0  0  0
  7 10  1  0  0  0  0
 10 11  1  0  0  0  0
 10 12  1  0  0  0  0
 10 13  1  0  0  0  0
 13 14  1  0  0  0  0
 13 15  1  0  0  0  0
 13 16  1  0  0  0  0
 16 17  1  0  0  0  0
 16 18  1  0  0  0  0
 16 19  1  0  0  0  0
 19 20  1  0  0  0  0
 19 21  1  0  0  0  0
 19 22  1  0  0  0  0
  1 23  1  0  0  0  0
 23 24  1  0  0  0  0
 23 25  1  0  0  0  0
 23 26  1  0  0  0  0
M  END
> <VConfSearch Rank>
636

> <Conf_Id>
29

> <Delta U+W>
0.886

> <U+W>
22.729

> <U>
71.870

> <W>
-49.141

> <W(PB)>
-51.404

> <W(SA)>
2.262

> <Valence>
2.682

> <Coulomb>
68.933

> <VdW>
0.255

> <VdW6>
-6.833

> <VdW12>
7.088

> <Bond>
0.205

> <Angle>
1.003

> <Pdih>
1.473

> <Idih>
0.000

> <Tether>
0.000

$$$$
VeraChem MOL file


 26 25  0  0  0  0  0  0  0  0999 V2000     
   17.6673   17.8611   23.0713 N   0  3  0  0  0  0  0  0  0  0  0  0
   17.5274   17.0331   23.6710 H   0  0  0  0  0  0  0  0  0  0  0  0
   18.0363   17.4954   22.1799 H   0  0  0  0  0  0  0  0  0  0  0  0
   18.6705   18.8028   23.7061 C   0  0  0  0  0  0  0  0  0  0  0  0
   18.2487   19.1564   24.6502 H   0  0  0  0  0  0  0  0  0  0  0  0
   18.7909   19.6601   23.0395 H   0  0  0  0  0  0  0  0  0  0  0  0
   20.0415   18.1491   23.9637 C   0  0  0  0  0  0  0  0  0  0  0  0
   19.9051   17.2683   24.6051 H   0  0  0  0  0  0  0  0  0  0  0  0
   20.4592   17.7802   23.0183 H   0  0  0  0  0  0  0  0  0  0  0  0
   21.0441   19.1133   24.6451 C   0  0  0  0  0  0  0  0  0  0  0  0
   21.9907   18.5840   24.8176 H   0  0  0  0  0  0  0  0  0  0  0  0
   20.6645   19.3728   25.6430 H   0  0  0  0  0  0  0  0  0  0  0  0
   21.3188   20.4266   23.8635 C   0  0  0  0  0  0  0  0  0  0  0  0
   20.4043   21.0344   23.8383 H   0  0  0  0  0  0  0  0  0  0  0  0
   22.0522   21.0217   24.4249 H   0  0  0  0  0  0  0  0  0  0  0  0
   21.8342   20.2361   22.4141 C   0  0  0  0  0  0  0  0  0  0  0  0
   21.9797   21.2268   21.9613 H   0  0  0  0  0  0  0  0  0  0  0  0
   21.0717   19.7357   21.8023 H   0  0  0  0  0  0  0  0  0  0  0  0
   23.1642   19.4528   22.3343 C   0  0  0  0  0  0  0  0  0  0  0  0
   23.5293   19.4190   21.2997 H   0  0  0  0  0  0  0  0  0  0  0  0
   23.0427   18.4173   22.6757 H   0  0  0  0  0  0  0  0  0  0  0  0
   23.9396   19.9286   22.9486 H   0  0  0  0  0  0  0  0  0  0  0  0
   16.3478   18.5861   22.8457 C   0  0  0  0  0  0  0  0  0  0  0  0
   15.6341   17.8971   22.3886 H   0  0  0  0  0  0  0  0  0  0  0  0
   15.9608   18.9347   23.8058 H   0  0  0  0  0  0  0  0  0  0  0  0
   16.5147   19.4378   22.1826 H   0  0  0  0  0  0  0  0  0  0  0  0
  1  2  1  0  0  0  0
  1  3  1  0  0  0  0
  1  4  1  0  0  0  0
  4  5  1  0  0  0  0
  4  6  1  0  0  0  0
  4  7  1  0  0  0  0
  7  8  1  0  0  0  0
  7  9  1  0  0  0  0
  7 10  1  0  0  0  0
 10 11  1  0  0  0  0
 10 12  1  0  0  0  0
 10 13  1  0  0  0  0
 13 14  1  0  0  0  0
 13 15  1  0  0  0  0
 13 16  1  0  0  0  0
 16 17  1  0  0  0  0
 16 18  1  0  0  0  0
 16 19  1  0  0  0  0
 19 20  1  0  0  0  0
 19 21  1  0  0  0  0
 19 22  1  0  0  0  0
  1 23  1  0  0  0  0
 23 24  1  0  0  0  0
 23 25  1  0  0  0  0
 23 26  1  0  0  0  0
M  END
> <VConfSearch Rank>
637

> <Conf_Id>
82

> <Delta U+W>
1.026

> <U+W>
22.868

> <U>
72.455

> <W>
-49.586

> <W(PB)>
-51.821

> <W(SA)>
2.234

> <Valence>
2.908

> <Coulomb>
69.435

> <VdW>
0.112

> <VdW6>
-7.765

> <VdW12>
7.877

> <Bond>
0.233

> <Angle>
1.170

> <Pdih>
1.506

> <Idih>
0.000

> <Tether>
0.000

$$$$
VeraChem MOL file


 26 25  0  0  0  0  0  0  0  0999 V2000     
   17.9092   18.8613   21.8647 N   0  3  0  0  0  0  0  0  0  0  0  0
   17.4187   19.2074   22.7039 H   0  0  0  0  0  0  0  0  0  0  0  0
   17.5599   17.9014   21.7187 H   0  0  0  0  0  0  0  0  0  0  0  0
   19.4055   18.8424   22.1034 C   0  0  0  0  0  0  0  0  0  0  0  0
   19.7317   19.8740   22.2559 H   0  0  0  0  0  0  0  0  0  0  0  0
   19.8851   18.4591   21.1993 H   0  0  0  0  0  0  0  0  0  0  0  0
   19.8188   17.9831   23.3133 C   0  0  0  0  0  0  0  0  0  0  0  0
   19.3258   18.3580   24.2193 H   0  0  0  0  0  0  0  0  0  0  0  0
   19.4555   16.9573   23.1666 H   0  0  0  0  0  0  0  0  0  0  0  0
   21.3530   17.9452   23.5225 C   0  0  0  0  0  0  0  0  0  0  0  0
   21.8171   17.4529   22.6567 H   0  0  0  0  0  0  0  0  0  0  0  0
   21.5822   17.3045   24.3845 H   0  0  0  0  0  0  0  0  0  0  0  0
   22.0186   19.3346   23.7170 C   0  0  0  0  0  0  0  0  0  0  0  0
   23.0961   19.1880   23.8742 H   0  0  0  0  0  0  0  0  0  0  0  0
   21.9329   19.9136   22.7877 H   0  0  0  0  0  0  0  0  0  0  0  0
   21.4531   20.1787   24.8876 C   0  0  0  0  0  0  0  0  0  0  0  0
   20.4002   20.4295   24.7014 H   0  0  0  0  0  0  0  0  0  0  0  0
   21.9892   21.1376   24.9186 H   0  0  0  0  0  0  0  0  0  0  0  0
   21.5897   19.4881   26.2635 C   0  0  0  0  0  0  0  0  0  0  0  0
   20.9813   18.5769   26.3189 H   0  0  0  0  0  0  0  0  0  0  0  0
   21.2547   20.1585   27.0654 H   0  0  0  0  0  0  0  0  0  0  0  0
   22.6338   19.2171   26.4669 H   0  0  0  0  0  0  0  0  0  0  0  0
   17.5882   19.7353   20.6602 C   0  0  0  0  0  0  0  0  0  0  0  0
   18.0909   19.3309   19.7789 H   0  0  0  0  0  0  0  0  0  0  0  0
   16.5079   19.7401   20.4989 H   0  0  0  0  0  0  0  0  0  0  0  0
   17.9371   20.7525   20.8512 H   0  0  0  0  0  0  0  0  0  0  0  0
  1  2  1  0  0  0  0
  1  3  1  0  0  0  0
  1  4  1  0  0  0  0
  4  5  1  0  0  0  0
  4  6  1  0  0  0  0
  4  7  1  0  0  0  0
  7  8  1  0  0  0  0
  7  9  1  0  0  0  0
  7 10  1  0  0  0  0
 10 11  1  0  0  0  0
 10 12  1  0  0  0  0
 10 13  1  0  0  0  0
 13 14  1  0  0  0  0
 13 15  1  0  0  0  0
 13 16  1  0  0  0  0
 16 17  1  0  0  0  0
 16 18  1  0  0  0  0
 16 19  1  0  0  0  0
 19 20  1  0  0  0  0
 19 21  1  0  0  0  0
 19 22  1  0  0  0  0
  1 23  1  0  0  0  0
 23 24  1  0  0  0  0
 23 25  1  0  0  0  0
 23 26  1  0  0  0  0
M  END
> <VConfSearch Rank>
638

> <Conf_Id>
71

> <Delta U+W>
1.096

> <U+W>
22.938

> <U>
72.455

> <W>
-49.517

> <W(PB)>
-51.795

> <W(SA)>
2.278

> <Valence>
2.908

> <Coulomb>
69.435

> <VdW>
0.112

> <VdW6>
-7.766

> <VdW12>
7.877

> <Bond>
0.233

> <Angle>
1.170

> <Pdih>
1.506

> <Idih>
0.000

> <Tether>
0.000

$$$$
VeraChem MOL file


 26 25  0  0  0  0  0  0  0  0999 V2000     
   21.9645   17.6305   23.3599 N   0  3  0  0  0  0  0  0  0  0  0  0
   21.8753   18.4892   23.9234 H   0  0  0  0  0  0  0  0  0  0  0  0
   22.9331   17.6410   23.0027 H   0  0  0  0  0  0  0  0  0  0  0  0
   20.9899   17.6713   22.1936 C   0  0  0  0  0  0  0  0  0  0  0  0
   21.1023   16.7389   21.6346 H   0  0  0  0  0  0  0  0  0  0  0  0
   21.2970   18.4913   21.5400 H   0  0  0  0  0  0  0  0  0  0  0  0
   19.5068   17.8643   22.5840 C   0  0  0  0  0  0  0  0  0  0  0  0
   18.9032   17.8857   21.6671 H   0  0  0  0  0  0  0  0  0  0  0  0
   19.1633   16.9889   23.1502 H   0  0  0  0  0  0  0  0  0  0  0  0
   19.2289   19.1469   23.4081 C   0  0  0  0  0  0  0  0  0  0  0  0
   19.7665   19.0993   24.3644 H   0  0  0  0  0  0  0  0  0  0  0  0
   18.1605   19.1644   23.6594 H   0  0  0  0  0  0  0  0  0  0  0  0
   19.6059   20.4491   22.6566 C   0  0  0  0  0  0  0  0  0  0  0  0
   20.6674   20.4200   22.3779 H   0  0  0  0  0  0  0  0  0  0  0  0
   19.0416   20.5098   21.7158 H   0  0  0  0  0  0  0  0  0  0  0  0
   19.3626   21.7324   23.4877 C   0  0  0  0  0  0  0  0  0  0  0  0
   19.7596   22.5926   22.9307 H   0  0  0  0  0  0  0  0  0  0  0  0
   19.9351   21.6833   24.4245 H   0  0  0  0  0  0  0  0  0  0  0  0
   17.8713   21.9905   23.8023 C   0  0  0  0  0  0  0  0  0  0  0  0
   17.4588   21.2202   24.4655 H   0  0  0  0  0  0  0  0  0  0  0  0
   17.2714   22.0113   22.8833 H   0  0  0  0  0  0  0  0  0  0  0  0
   17.7472   22.9582   24.3054 H   0  0  0  0  0  0  0  0  0  0  0  0
   21.7419   16.3928   24.2212 C   0  0  0  0  0  0  0  0  0  0  0  0
   22.4774   16.3821   25.0286 H   0  0  0  0  0  0  0  0  0  0  0  0
   20.7348   16.4224   24.6420 H   0  0  0  0  0  0  0  0  0  0  0  0
   21.8596   15.5000   23.6032 H   0  0  0  0  0  0  0  0  0  0  0  0
  1  2  1  0  0  0  0
  1  3  1  0  0  0  0
  1  4  1  0  0  0  0
  4  5  1  0  0  0  0
  4  6  1  0  0  0  0
  4  7  1  0  0  0  0
  7  8  1  0  0  0  0
  7  9  1  0  0  0  0
  7 10  1  0  0  0  0
 10 11  1  0  0  0  0
 10 12  1  0  0  0  0
 10 13  1  0  0  0  0
 13 14  1  0  0  0  0
 13 15  1  0  0  0  0
 13 16  1  0  0  0  0
 16 17  1  0  0  0  0
 16 18  1  0  0  0  0
 16 19  1  0  0  0  0
 19 20  1  0  0  0  0
 19 21  1  0  0  0  0
 19 22  1  0  0  0  0
  1 23  1  0  0  0  0
 23 24  1  0  0  0  0
 23 25  1  0  0  0  0
 23 26  1  0  0  0  0
M  END
> <VConfSearch Rank>
639

> <Conf_Id>
84

> <Delta U+W>
1.456

> <U+W>
23.298

> <U>
73.042

> <W>
-49.744

> <W(PB)>
-51.966

> <W(SA)>
2.222

> <Valence>
2.938

> <Coulomb>
69.625

> <VdW>
0.478

> <VdW6>
-8.182

> <VdW12>
8.660

> <Bond>
0.253

> <Angle>
1.038

> <Pdih>
1.647

> <Idih>
0.000

> <Tether>
0.000

$$$$
VeraChem MOL file


 26 25  0  0  0  0  0  0  0  0999 V2000     
   19.7025   19.1845   25.6244 N   0  3  0  0  0  0  0  0  0  0  0  0
   18.9599   18.9229   24.9587 H   0  0  0  0  0  0  0  0  0  0  0  0
   19.3386   20.0017   26.1386 H   0  0  0  0  0  0  0  0  0  0  0  0
   20.9636   19.5612   24.8718 C   0  0  0  0  0  0  0  0  0  0  0  0
   21.3196   18.6725   24.3453 H   0  0  0  0  0  0  0  0  0  0  0  0
   21.7184   19.8429   25.6104 H   0  0  0  0  0  0  0  0  0  0  0  0
   20.7703   20.7185   23.8700 C   0  0  0  0  0  0  0  0  0  0  0  0
   20.4635   21.6200   24.4168 H   0  0  0  0  0  0  0  0  0  0  0  0
   21.7409   20.9537   23.4136 H   0  0  0  0  0  0  0  0  0  0  0  0
   19.7392   20.4209   22.7521 C   0  0  0  0  0  0  0  0  0  0  0  0
   19.6648   21.3038   22.1023 H   0  0  0  0  0  0  0  0  0  0  0  0
   18.7419   20.2814   23.1902 H   0  0  0  0  0  0  0  0  0  0  0  0
   20.1104   19.1884   21.8924 C   0  0  0  0  0  0  0  0  0  0  0  0
   21.1184   19.3219   21.4758 H   0  0  0  0  0  0  0  0  0  0  0  0
   20.1425   18.2875   22.5195 H   0  0  0  0  0  0  0  0  0  0  0  0
   19.1039   18.9672   20.7414 C   0  0  0  0  0  0  0  0  0  0  0  0
   19.0708   19.8592   20.1001 H   0  0  0  0  0  0  0  0  0  0  0  0
   18.0931   18.8350   21.1522 H   0  0  0  0  0  0  0  0  0  0  0  0
   19.4738   17.7363   19.8865 C   0  0  0  0  0  0  0  0  0  0  0  0
   20.4671   17.8538   19.4340 H   0  0  0  0  0  0  0  0  0  0  0  0
   18.7485   17.5961   19.0745 H   0  0  0  0  0  0  0  0  0  0  0  0
   19.4807   16.8215   20.4933 H   0  0  0  0  0  0  0  0  0  0  0  0
   19.9923   18.0358   26.5803 C   0  0  0  0  0  0  0  0  0  0  0  0
   20.7590   18.3469   27.2933 H   0  0  0  0  0  0  0  0  0  0  0  0
   19.0762   17.7743   27.1145 H   0  0  0  0  0  0  0  0  0  0  0  0
   20.3454   17.1741   26.0096 H   0  0  0  0  0  0  0  0  0  0  0  0
  1  2  1  0  0  0  0
  1  3  1  0  0  0  0
  1  4  1  0  0  0  0
  4  5  1  0  0  0  0
  4  6  1  0  0  0  0
  4  7  1  0  0  0  0
  7  8  1  0  0  0  0
  7  9  1  0  0  0  0
  7 10  1  0  0  0  0
 10 11  1  0  0  0  0
 10 12  1  0  0  0  0
 10 13  1  0  0  0  0
 13 14  1  0  0  0  0
 13 15  1  0  0  0  0
 13 16  1  0  0  0  0
 16 17  1  0  0  0  0
 16 18  1  0  0  0  0
 16 19  1  0  0  0  0
 19 20  1  0  0  0  0
 19 21  1  0  0  0  0
 19 22  1  0  0  0  0
  1 23  1  0  0  0  0
 23 24  1  0  0  0  0
 23 25  1  0  0  0  0
 23 26  1  0  0  0  0
M  END
> <VConfSearch Rank>
640

> <Conf_Id>
73

> <Delta U+W>
0.884

> <U+W>
22.726

> <U>
71.905

> <W>
-49.179

> <W(PB)>
-51.494

> <W(SA)>
2.315

> <Valence>
2.125

> <Coulomb>
69.686

> <VdW>
0.093

> <VdW6>
-6.766

> <VdW12>
6.859

> <Bond>
0.169

> <Angle>
0.621

> <Pdih>
1.336

> <Idih>
0.000

> <Tether>
0.000

$$$$
VeraChem MOL file


 26 25  0  0  0  0  0  0  0  0999 V2000     
   21.1124   18.9651   26.3375 N   0  3  0  0  0  0  0  0  0  0  0  0
   20.3882   18.3123   26.6756 H   0  0  0  0  0  0  0  0  0  0  0  0
   20.7778   19.9056   26.5991 H   0  0  0  0  0  0  0  0  0  0  0  0
   21.2504   18.8592   24.8320 C   0  0  0  0  0  0  0  0  0  0  0  0
   21.5974   17.8497   24.5974 H   0  0  0  0  0  0  0  0  0  0  0  0
   22.0180   19.5696   24.5149 H   0  0  0  0  0  0  0  0  0  0  0  0
   19.9383   19.1440   24.0789 C   0  0  0  0  0  0  0  0  0  0  0  0
   19.1654   18.4387   24.4126 H   0  0  0  0  0  0  0  0  0  0  0  0
   19.5846   20.1528   24.3304 H   0  0  0  0  0  0  0  0  0  0  0  0
   20.1266   19.0246   22.5503 C   0  0  0  0  0  0  0  0  0  0  0  0
   20.4856   18.0157   22.3033 H   0  0  0  0  0  0  0  0  0  0  0  0
   20.9045   19.7277   22.2212 H   0  0  0  0  0  0  0  0  0  0  0  0
   18.8150   19.3088   21.7832 C   0  0  0  0  0  0  0  0  0  0  0  0
   18.0371   18.6058   22.1120 H   0  0  0  0  0  0  0  0  0  0  0  0
   18.4560   20.3176   22.0300 H   0  0  0  0  0  0  0  0  0  0  0  0
   19.0037   19.1894   20.2544 C   0  0  0  0  0  0  0  0  0  0  0  0
   19.3606   18.1809   20.0020 H   0  0  0  0  0  0  0  0  0  0  0  0
   19.7794   19.8926   19.9200 H   0  0  0  0  0  0  0  0  0  0  0  0
   17.6920   19.4737   19.4918 C   0  0  0  0  0  0  0  0  0  0  0  0
   17.8461   19.3841   18.4086 H   0  0  0  0  0  0  0  0  0  0  0  0
   17.3279   20.4888   19.6972 H   0  0  0  0  0  0  0  0  0  0  0  0
   16.9058   18.7637   19.7799 H   0  0  0  0  0  0  0  0  0  0  0  0
   22.4498   18.6701   27.0025 C   0  0  0  0  0  0  0  0  0  0  0  0
   23.1910   19.3932   26.6551 H   0  0  0  0  0  0  0  0  0  0  0  0
   22.3364   18.7497   28.0860 H   0  0  0  0  0  0  0  0  0  0  0  0
   22.7670   17.6589   26.7382 H   0  0  0  0  0  0  0  0  0  0  0  0
  1  2  1  0  0  0  0
  1  3  1  0  0  0  0
  1  4  1  0  0  0  0
  4  5  1  0  0  0  0
  4  6  1  0  0  0  0
  4  7  1  0  0  0  0
  7  8  1  0  0  0  0
  7  9  1  0  0  0  0
  7 10  1  0  0  0  0
 10 11  1  0  0  0  0
 10 12  1  0  0  0  0
 10 13  1  0  0  0  0
 13 14  1  0  0  0  0
 13 15  1  0  0  0  0
 13 16  1  0  0  0  0
 16 17  1  0  0  0  0
 16 18  1  0  0  0  0
 16 19  1  0  0  0  0
 19 20  1  0  0  0  0
 19 21  1  0  0  0  0
 19 22  1  0  0  0  0
  1 23  1  0  0  0  0
 23 24  1  0  0  0  0
 23 25  1  0  0  0  0
 23 26  1  0  0  0  0
M  END
> <VConfSearch Rank>
641

> <Conf_Id>
11

> <Delta U+W>
0.000

> <U+W>
21.842

> <U>
70.357

> <W>
-48.515

> <W(PB)>
-50.856

> <W(SA)>
2.341

> <Valence>
1.714

> <Coulomb>
68.480

> <VdW>
0.163

> <VdW6>
-5.268

> <VdW12>
5.431

> <Bond>
0.126

> <Angle>
0.350

> <Pdih>
1.238

> <Idih>
0.000

> <Tether>
0.000

$$$$
VeraChem MOL file


 26 25  0  0  0  0  0  0  0  0999 V2000     
   17.2880   21.0450   22.9632 N   0  3  0  0  0  0  0  0  0  0  0  0
   16.4281   21.2624   23.4916 H   0  0  0  0  0  0  0  0  0  0  0  0
   16.9596   20.5997   22.0924 H   0  0  0  0  0  0  0  0  0  0  0  0
   18.1424   20.0735   23.7603 C   0  0  0  0  0  0  0  0  0  0  0  0
   17.4905   19.2580   24.0838 H   0  0  0  0  0  0  0  0  0  0  0  0
   18.5016   20.5941   24.6516 H   0  0  0  0  0  0  0  0  0  0  0  0
   19.3352   19.4822   22.9818 C   0  0  0  0  0  0  0  0  0  0  0  0
   18.9696   19.0045   22.0631 H   0  0  0  0  0  0  0  0  0  0  0  0
   20.0158   20.2877   22.6771 H   0  0  0  0  0  0  0  0  0  0  0  0
   20.1076   18.4499   23.8328 C   0  0  0  0  0  0  0  0  0  0  0  0
   19.4257   17.6444   24.1394 H   0  0  0  0  0  0  0  0  0  0  0  0
   20.4662   18.9302   24.7540 H   0  0  0  0  0  0  0  0  0  0  0  0
   21.3056   17.8481   23.0633 C   0  0  0  0  0  0  0  0  0  0  0  0
   20.9472   17.3681   22.1421 H   0  0  0  0  0  0  0  0  0  0  0  0
   21.9877   18.6533   22.7569 H   0  0  0  0  0  0  0  0  0  0  0  0
   22.0778   16.8157   23.9148 C   0  0  0  0  0  0  0  0  0  0  0  0
   21.4003   16.0066   24.2218 H   0  0  0  0  0  0  0  0  0  0  0  0
   22.4406   17.2917   24.8366 H   0  0  0  0  0  0  0  0  0  0  0  0
   23.2733   16.2170   23.1433 C   0  0  0  0  0  0  0  0  0  0  0  0
   23.8088   15.4868   23.7639 H   0  0  0  0  0  0  0  0  0  0  0  0
   23.9869   16.9988   22.8521 H   0  0  0  0  0  0  0  0  0  0  0  0
   22.9384   15.7036   22.2326 H   0  0  0  0  0  0  0  0  0  0  0  0
   18.0489   22.3311   22.6613 C   0  0  0  0  0  0  0  0  0  0  0  0
   18.9215   22.0998   22.0471 H   0  0  0  0  0  0  0  0  0  0  0  0
   17.3917   23.0165   22.1214 H   0  0  0  0  0  0  0  0  0  0  0  0
   18.3671   22.7887   23.6005 H   0  0  0  0  0  0  0  0  0  0  0  0
  1  2  1  0  0  0  0
  1  3  1  0  0  0  0
  1  4  1  0  0  0  0
  4  5  1  0  0  0  0
  4  6  1  0  0  0  0
  4  7  1  0  0  0  0
  7  8  1  0  0  0  0
  7  9  1  0  0  0  0
  7 10  1  0  0  0  0
 10 11  1  0  0  0  0
 10 12  1  0  0  0  0
 10 13  1  0  0  0  0
 13 14  1  0  0  0  0
 13 15  1  0  0  0  0
 13 16  1  0  0  0  0
 16 17  1  0  0  0  0
 16 18  1  0  0  0  0
 16 19  1  0  0  0  0
 19 20  1  0  0  0  0
 19 21  1  0  0  0  0
 19 22  1  0  0  0  0
  1 23  1  0  0  0  0
 23 24  1  0  0  0  0
 23 25  1  0  0  0  0
 23 26  1  0  0  0  0
M  END
> <VConfSearch Rank>
642

> <Conf_Id>
102

> <Delta U+W>
0.121

> <U+W>
21.963

> <U>
70.745

> <W>
-48.782

> <W(PB)>
-51.111

> <W(SA)>
2.329

> <Valence>
1.993

> <Coulomb>
68.323

> <VdW>
0.429

> <VdW6>
-5.973

> <VdW12>
6.402

> <Bond>
0.161

> <Angle>
0.472

> <Pdih>
1.360

> <Idih>
0.000

> <Tether>
0.000

$$$$
VeraChem MOL file


 26 25  0  0  0  0  0  0  0  0999 V2000     
   22.7686   19.7630   25.2309 N   0  3  0  0  0  0  0  0  0  0  0  0
   23.3911   19.0853   24.7643 H   0  0  0  0  0  0  0  0  0  0  0  0
   23.0242   19.7150   26.2301 H   0  0  0  0  0  0  0  0  0  0  0  0
   21.3168   19.3491   25.0571 C   0  0  0  0  0  0  0  0  0  0  0  0
   20.6909   20.1104   25.5295 H   0  0  0  0  0  0  0  0  0  0  0  0
   21.1793   18.4115   25.6017 H   0  0  0  0  0  0  0  0  0  0  0  0
   20.8799   19.1459   23.5920 C   0  0  0  0  0  0  0  0  0  0  0  0
   20.9831   20.0888   23.0396 H   0  0  0  0  0  0  0  0  0  0  0  0
   21.5453   18.4164   23.1115 H   0  0  0  0  0  0  0  0  0  0  0  0
   19.4182   18.6542   23.5030 C   0  0  0  0  0  0  0  0  0  0  0  0
   18.7565   19.3837   23.9906 H   0  0  0  0  0  0  0  0  0  0  0  0
   19.3145   17.7111   24.0576 H   0  0  0  0  0  0  0  0  0  0  0  0
   18.9677   18.4452   22.0392 C   0  0  0  0  0  0  0  0  0  0  0  0
   19.0709   19.3882   21.4845 H   0  0  0  0  0  0  0  0  0  0  0  0
   19.6295   17.7160   21.5514 H   0  0  0  0  0  0  0  0  0  0  0  0
   17.5057   17.9533   21.9504 C   0  0  0  0  0  0  0  0  0  0  0  0
   16.8393   18.6806   22.4351 H   0  0  0  0  0  0  0  0  0  0  0  0
   17.3978   17.0086   22.5016 H   0  0  0  0  0  0  0  0  0  0  0  0
   17.0594   17.7460   20.4873 C   0  0  0  0  0  0  0  0  0  0  0  0
   17.1235   18.6827   19.9184 H   0  0  0  0  0  0  0  0  0  0  0  0
   16.0195   17.3968   20.4449 H   0  0  0  0  0  0  0  0  0  0  0  0
   17.6865   16.9976   19.9854 H   0  0  0  0  0  0  0  0  0  0  0  0
   23.0086   21.1729   24.7027 C   0  0  0  0  0  0  0  0  0  0  0  0
   22.3505   21.8692   25.2270 H   0  0  0  0  0  0  0  0  0  0  0  0
   24.0510   21.4475   24.8786 H   0  0  0  0  0  0  0  0  0  0  0  0
   22.7983   21.1988   23.6316 H   0  0  0  0  0  0  0  0  0  0  0  0
  1  2  1  0  0  0  0
  1  3  1  0  0  0  0
  1  4  1  0  0  0  0
  4  5  1  0  0  0  0
  4  6  1  0  0  0  0
  4  7  1  0  0  0  0
  7  8  1  0  0  0  0
  7  9  1  0  0  0  0
  7 10  1  0  0  0  0
 10 11  1  0  0  0  0
 10 12  1  0  0  0  0
 10 13  1  0  0  0  0
 13 14  1  0  0  0  0
 13 15  1  0  0  0  0
 13 16  1  0  0  0  0
 16 17  1  0  0  0  0
 16 18  1  0  0  0  0
 16 19  1  0  0  0  0
 19 20  1  0  0  0  0
 19 21  1  0  0  0  0
 19 22  1  0  0  0  0
  1 23  1  0  0  0  0
 23 24  1  0  0  0  0
 23 25  1  0  0  0  0
 23 26  1  0  0  0  0
M  END
> <VConfSearch Rank>
643

> <Conf_Id>
37

> <Delta U+W>
0.125

> <U+W>
21.967

> <U>
70.745

> <W>
-48.778

> <W(PB)>
-51.115

> <W(SA)>
2.337

> <Valence>
1.993

> <Coulomb>
68.323

> <VdW>
0.429

> <VdW6>
-5.973

> <VdW12>
6.403

> <Bond>
0.161

> <Angle>
0.472

> <Pdih>
1.360

> <Idih>
0.000

> <Tether>
0.000

$$$$
VeraChem MOL file


 26 25  0  0  0  0  0  0  0  0999 V2000     
   20.2113   20.7370   25.8353 N   0  3  0  0  0  0  0  0  0  0  0  0
   20.8103   21.5652   25.6931 H   0  0  0  0  0  0  0  0  0  0  0  0
   20.7880   20.0699   26.3711 H   0  0  0  0  0  0  0  0  0  0  0  0
   19.8230   20.1369   24.4990 C   0  0  0  0  0  0  0  0  0  0  0  0
   19.2248   20.8762   23.9606 H   0  0  0  0  0  0  0  0  0  0  0  0
   19.1967   19.2639   24.6964 H   0  0  0  0  0  0  0  0  0  0  0  0
   21.0354   19.7269   23.6407 C   0  0  0  0  0  0  0  0  0  0  0  0
   21.6797   20.6034   23.4904 H   0  0  0  0  0  0  0  0  0  0  0  0
   21.6368   18.9838   24.1810 H   0  0  0  0  0  0  0  0  0  0  0  0
   20.6287   19.1616   22.2591 C   0  0  0  0  0  0  0  0  0  0  0  0
   21.5419   19.0012   21.6716 H   0  0  0  0  0  0  0  0  0  0  0  0
   20.0368   19.9116   21.7163 H   0  0  0  0  0  0  0  0  0  0  0  0
   19.8321   17.8352   22.3550 C   0  0  0  0  0  0  0  0  0  0  0  0
   20.4326   17.0795   22.8800 H   0  0  0  0  0  0  0  0  0  0  0  0
   18.9312   17.9906   22.9631 H   0  0  0  0  0  0  0  0  0  0  0  0
   19.3927   17.2795   20.9785 C   0  0  0  0  0  0  0  0  0  0  0  0
   18.7819   18.0271   20.4533 H   0  0  0  0  0  0  0  0  0  0  0  0
   18.7400   16.4106   21.1421 H   0  0  0  0  0  0  0  0  0  0  0  0
   20.5751   16.8496   20.0803 C   0  0  0  0  0  0  0  0  0  0  0  0
   21.1897   17.7080   19.7826 H   0  0  0  0  0  0  0  0  0  0  0  0
   20.2065   16.3750   19.1617 H   0  0  0  0  0  0  0  0  0  0  0  0
   21.2202   16.1261   20.5955 H   0  0  0  0  0  0  0  0  0  0  0  0
   18.9603   21.1108   26.6183 C   0  0  0  0  0  0  0  0  0  0  0  0
   18.3597   20.2139   26.7851 H   0  0  0  0  0  0  0  0  0  0  0  0
   19.2540   21.5418   27.5781 H   0  0  0  0  0  0  0  0  0  0  0  0
   18.3838   21.8415   26.0468 H   0  0  0  0  0  0  0  0  0  0  0  0
  1  2  1  0  0  0  0
  1  3  1  0  0  0  0
  1  4  1  0  0  0  0
  4  5  1  0  0  0  0
  4  6  1  0  0  0  0
  4  7  1  0  0  0  0
  7  8  1  0  0  0  0
  7  9  1  0  0  0  0
  7 10  1  0  0  0  0
 10 11  1  0  0  0  0
 10 12  1  0  0  0  0
 10 13  1  0  0  0  0
 13 14  1  0  0  0  0
 13 15  1  0  0  0  0
 13 16  1  0  0  0  0
 16 17  1  0  0  0  0
 16 18  1  0  0  0  0
 16 19  1  0  0  0  0
 19 20  1  0  0  0  0
 19 21  1  0  0  0  0
 19 22  1  0  0  0  0
  1 23  1  0  0  0  0
 23 24  1  0  0  0  0
 23 25  1  0  0  0  0
 23 26  1  0  0  0  0
M  END
> <VConfSearch Rank>
644

> <Conf_Id>
137

> <Delta U+W>
1.038

> <U+W>
22.880

> <U>
71.810

> <W>
-48.930

> <W(PB)>
-51.257

> <W(SA)>
2.327

> <Valence>
2.568

> <Coulomb>
68.877

> <VdW>
0.364

> <VdW6>
-6.470

> <VdW12>
6.834

> <Bond>
0.191

> <Angle>
0.752

> <Pdih>
1.626

> <Idih>
0.000

> <Tether>
0.000

$$$$
VeraChem MOL file


 26 25  0  0  0  0  0  0  0  0999 V2000     
   21.6097   20.2008   21.0114 N   0  3  0  0  0  0  0  0  0  0  0  0
   20.8541   19.8525   20.4010 H   0  0  0  0  0  0  0  0  0  0  0  0
   22.3303   19.4622   21.0051 H   0  0  0  0  0  0  0  0  0  0  0  0
   21.0896   20.4120   22.4192 C   0  0  0  0  0  0  0  0  0  0  0  0
   20.3259   21.1929   22.3809 H   0  0  0  0  0  0  0  0  0  0  0  0
   21.9196   20.7718   23.0325 H   0  0  0  0  0  0  0  0  0  0  0  0
   20.4961   19.1377   23.0468 C   0  0  0  0  0  0  0  0  0  0  0  0
   19.6771   18.7758   22.4127 H   0  0  0  0  0  0  0  0  0  0  0  0
   21.2621   18.3511   23.0683 H   0  0  0  0  0  0  0  0  0  0  0  0
   19.9823   19.4038   24.4815 C   0  0  0  0  0  0  0  0  0  0  0  0
   19.1814   20.1557   24.4549 H   0  0  0  0  0  0  0  0  0  0  0  0
   20.7961   19.8422   25.0759 H   0  0  0  0  0  0  0  0  0  0  0  0
   19.4762   18.1316   25.2055 C   0  0  0  0  0  0  0  0  0  0  0  0
   20.2825   17.3864   25.2479 H   0  0  0  0  0  0  0  0  0  0  0  0
   19.2443   18.3933   26.2472 H   0  0  0  0  0  0  0  0  0  0  0  0
   18.2206   17.5052   24.5535 C   0  0  0  0  0  0  0  0  0  0  0  0
   18.4515   17.1634   23.5359 H   0  0  0  0  0  0  0  0  0  0  0  0
   17.4311   18.2644   24.4634 H   0  0  0  0  0  0  0  0  0  0  0  0
   17.6893   16.3103   25.3738 C   0  0  0  0  0  0  0  0  0  0  0  0
   18.4470   15.5202   25.4564 H   0  0  0  0  0  0  0  0  0  0  0  0
   16.8012   15.8764   24.8962 H   0  0  0  0  0  0  0  0  0  0  0  0
   17.4075   16.6211   26.3883 H   0  0  0  0  0  0  0  0  0  0  0  0
   22.1769   21.5048   20.4677 C   0  0  0  0  0  0  0  0  0  0  0  0
   22.9956   21.8360   21.1104 H   0  0  0  0  0  0  0  0  0  0  0  0
   22.5479   21.3389   19.4538 H   0  0  0  0  0  0  0  0  0  0  0  0
   21.3888   22.2608   20.4529 H   0  0  0  0  0  0  0  0  0  0  0  0
  1  2  1  0  0  0  0
  1  3  1  0  0  0  0
  1  4  1  0  0  0  0
  4  5  1  0  0  0  0
  4  6  1  0  0  0  0
  4  7  1  0  0  0  0
  7  8  1  0  0  0  0
  7  9  1  0  0  0  0
  7 10  1  0  0  0  0
 10 11  1  0  0  0  0
 10 12  1  0  0  0  0
 10 13  1  0  0  0  0
 13 14  1  0  0  0  0
 13 15  1  0  0  0  0
 13 16  1  0  0  0  0
 16 17  1  0  0  0  0
 16 18  1  0  0  0  0
 16 19  1  0  0  0  0
 19 20  1  0  0  0  0
 19 21  1  0  0  0  0
 19 22  1  0  0  0  0
  1 23  1  0  0  0  0
 23 24  1  0  0  0  0
 23 25  1  0  0  0  0
 23 26  1  0  0  0  0
M  END
> <VConfSearch Rank>
645

> <Conf_Id>
35

> <Delta U+W>
0.670

> <U+W>
22.512

> <U>
71.348

> <W>
-48.837

> <W(PB)>
-51.150

> <W(SA)>
2.313

> <Valence>
2.262

> <Coulomb>
68.807

> <VdW>
0.280

> <VdW6>
-5.915

> <VdW12>
6.195

> <Bond>
0.164

> <Angle>
0.622

> <Pdih>
1.475

> <Idih>
0.000

> <Tether>
0.000

$$$$
VeraChem MOL file


 26 25  0  0  0  0  0  0  0  0999 V2000     
   17.1692   18.2793   23.5809 N   0  3  0  0  0  0  0  0  0  0  0  0
   17.0418   18.7313   24.4998 H   0  0  0  0  0  0  0  0  0  0  0  0
   17.5058   17.3261   23.7881 H   0  0  0  0  0  0  0  0  0  0  0  0
   18.2011   19.0330   22.7660 C   0  0  0  0  0  0  0  0  0  0  0  0
   17.8107   20.0359   22.5760 H   0  0  0  0  0  0  0  0  0  0  0  0
   18.3119   18.5193   21.8077 H   0  0  0  0  0  0  0  0  0  0  0  0
   19.5711   19.1336   23.4610 C   0  0  0  0  0  0  0  0  0  0  0  0
   19.4521   19.6356   24.4304 H   0  0  0  0  0  0  0  0  0  0  0  0
   19.9437   18.1216   23.6633 H   0  0  0  0  0  0  0  0  0  0  0  0
   20.5870   19.9123   22.5923 C   0  0  0  0  0  0  0  0  0  0  0  0
   20.1585   20.8906   22.3333 H   0  0  0  0  0  0  0  0  0  0  0  0
   20.7436   19.3837   21.6416 H   0  0  0  0  0  0  0  0  0  0  0  0
   21.9510   20.1428   23.2888 C   0  0  0  0  0  0  0  0  0  0  0  0
   22.5606   20.7983   22.6515 H   0  0  0  0  0  0  0  0  0  0  0  0
   21.7965   20.6870   24.2308 H   0  0  0  0  0  0  0  0  0  0  0  0
   22.7358   18.8377   23.5629 C   0  0  0  0  0  0  0  0  0  0  0  0
   22.8456   18.2676   22.6298 H   0  0  0  0  0  0  0  0  0  0  0  0
   22.1794   18.1998   24.2623 H   0  0  0  0  0  0  0  0  0  0  0  0
   24.1327   19.1266   24.1528 C   0  0  0  0  0  0  0  0  0  0  0  0
   24.7366   19.7296   23.4622 H   0  0  0  0  0  0  0  0  0  0  0  0
   24.6741   18.1909   24.3438 H   0  0  0  0  0  0  0  0  0  0  0  0
   24.0550   19.6706   25.1032 H   0  0  0  0  0  0  0  0  0  0  0  0
   15.8492   18.2267   22.8242 C   0  0  0  0  0  0  0  0  0  0  0  0
   16.0017   17.7154   21.8711 H   0  0  0  0  0  0  0  0  0  0  0  0
   15.1152   17.6816   23.4219 H   0  0  0  0  0  0  0  0  0  0  0  0
   15.4966   19.2449   22.6458 H   0  0  0  0  0  0  0  0  0  0  0  0
  1  2  1  0  0  0  0
  1  3  1  0  0  0  0
  1  4  1  0  0  0  0
  4  5  1  0  0  0  0
  4  6  1  0  0  0  0
  4  7  1  0  0  0  0
  7  8  1  0  0  0  0
  7  9  1  0  0  0  0
  7 10  1  0  0  0  0
 10 11  1  0  0  0  0
 10 12  1  0  0  0  0
 10 13  1  0  0  0  0
 13 14  1  0  0  0  0
 13 15  1  0  0  0  0
 13 16  1  0  0  0  0
 16 17  1  0  0  0  0
 16 18  1  0  0  0  0
 16 19  1  0  0  0  0
 19 20  1  0  0  0  0
 19 21  1  0  0  0  0
 19 22  1  0  0  0  0
  1 23  1  0  0  0  0
 23 24  1  0  0  0  0
 23 25  1  0  0  0  0
 23 26  1  0  0  0  0
M  END
> <VConfSearch Rank>
646

> <Conf_Id>
36

> <Delta U+W>
0.662

> <U+W>
22.504

> <U>
71.348

> <W>
-48.844

> <W(PB)>
-51.157

> <W(SA)>
2.313

> <Valence>
2.262

> <Coulomb>
68.807

> <VdW>
0.280

> <VdW6>
-5.916

> <VdW12>
6.195

> <Bond>
0.164

> <Angle>
0.622

> <Pdih>
1.475

> <Idih>
0.000

> <Tether>
0.000

$$$$
VeraChem MOL file


 26 25  0  0  0  0  0  0  0  0999 V2000     
   18.3883   19.7370   20.9058 N   0  3  0  0  0  0  0  0  0  0  0  0
   18.5316   20.7588   20.9212 H   0  0  0  0  0  0  0  0  0  0  0  0
   17.3722   19.6006   21.0229 H   0  0  0  0  0  0  0  0  0  0  0  0
   19.1387   19.0862   22.0502 C   0  0  0  0  0  0  0  0  0  0  0  0
   20.2055   19.2589   21.8893 H   0  0  0  0  0  0  0  0  0  0  0  0
   18.9526   18.0103   22.0046 H   0  0  0  0  0  0  0  0  0  0  0  0
   18.7259   19.6252   23.4335 C   0  0  0  0  0  0  0  0  0  0  0  0
   18.9113   20.7067   23.4788 H   0  0  0  0  0  0  0  0  0  0  0  0
   17.6446   19.4857   23.5648 H   0  0  0  0  0  0  0  0  0  0  0  0
   19.4674   18.9216   24.5946 C   0  0  0  0  0  0  0  0  0  0  0  0
   19.2578   17.8432   24.5631 H   0  0  0  0  0  0  0  0  0  0  0  0
   19.0599   19.2890   25.5467 H   0  0  0  0  0  0  0  0  0  0  0  0
   20.9970   19.1573   24.5711 C   0  0  0  0  0  0  0  0  0  0  0  0
   21.4257   18.7501   23.6456 H   0  0  0  0  0  0  0  0  0  0  0  0
   21.2023   20.2368   24.5689 H   0  0  0  0  0  0  0  0  0  0  0  0
   21.6973   18.5038   25.7834 C   0  0  0  0  0  0  0  0  0  0  0  0
   21.4946   17.4235   25.7910 H   0  0  0  0  0  0  0  0  0  0  0  0
   21.2820   18.9104   26.7161 H   0  0  0  0  0  0  0  0  0  0  0  0
   23.2229   18.7381   25.7580 C   0  0  0  0  0  0  0  0  0  0  0  0
   23.6732   18.3109   24.8525 H   0  0  0  0  0  0  0  0  0  0  0  0
   23.7019   18.2674   26.6263 H   0  0  0  0  0  0  0  0  0  0  0  0
   23.4583   19.8101   25.7837 H   0  0  0  0  0  0  0  0  0  0  0  0
   18.8564   19.1520   19.5804 C   0  0  0  0  0  0  0  0  0  0  0  0
   18.6645   18.0767   19.5747 H   0  0  0  0  0  0  0  0  0  0  0  0
   18.3081   19.6288   18.7649 H   0  0  0  0  0  0  0  0  0  0  0  0
   19.9263   19.3377   19.4637 H   0  0  0  0  0  0  0  0  0  0  0  0
  1  2  1  0  0  0  0
  1  3  1  0  0  0  0
  1  4  1  0  0  0  0
  4  5  1  0  0  0  0
  4  6  1  0  0  0  0
  4  7  1  0  0  0  0
  7  8  1  0  0  0  0
  7  9  1  0  0  0  0
  7 10  1  0  0  0  0
 10 11  1  0  0  0  0
 10 12  1  0  0  0  0
 10 13  1  0  0  0  0
 13 14  1  0  0  0  0
 13 15  1  0  0  0  0
 13 16  1  0  0  0  0
 16 17  1  0  0  0  0
 16 18  1  0  0  0  0
 16 19  1  0  0  0  0
 19 20  1  0  0  0  0
 19 21  1  0  0  0  0
 19 22  1  0  0  0  0
  1 23  1  0  0  0  0
 23 24  1  0  0  0  0
 23 25  1  0  0  0  0
 23 26  1  0  0  0  0
M  END
> <VConfSearch Rank>
647

> <Conf_Id>
46

> <Delta U+W>
0.496

> <U+W>
22.338

> <U>
71.138

> <W>
-48.799

> <W(PB)>
-51.136

> <W(SA)>
2.337

> <Valence>
2.016

> <Coulomb>
68.932

> <VdW>
0.190

> <VdW6>
-5.902

> <VdW12>
6.092

> <Bond>
0.149

> <Angle>
0.477

> <Pdih>
1.390

> <Idih>
0.000

> <Tether>
0.000

$$$$
VeraChem MOL file


 26 25  0  0  0  0  0  0  0  0999 V2000     
   22.9514   19.2077   23.7013 N   0  3  0  0  0  0  0  0  0  0  0  0
   23.5424   18.7451   22.9930 H   0  0  0  0  0  0  0  0  0  0  0  0
   22.9819   18.5920   24.5287 H   0  0  0  0  0  0  0  0  0  0  0  0
   21.5288   19.3328   23.1944 C   0  0  0  0  0  0  0  0  0  0  0  0
   21.5419   19.9814   22.3149 H   0  0  0  0  0  0  0  0  0  0  0  0
   20.9396   19.8210   23.9742 H   0  0  0  0  0  0  0  0  0  0  0  0
   20.8911   17.9782   22.8297 C   0  0  0  0  0  0  0  0  0  0  0  0
   21.5160   17.4783   22.0777 H   0  0  0  0  0  0  0  0  0  0  0  0
   20.8796   17.3258   23.7130 H   0  0  0  0  0  0  0  0  0  0  0  0
   19.4554   18.1243   22.2725 C   0  0  0  0  0  0  0  0  0  0  0  0
   19.1003   17.1355   21.9506 H   0  0  0  0  0  0  0  0  0  0  0  0
   19.4740   18.7553   21.3729 H   0  0  0  0  0  0  0  0  0  0  0  0
   18.4602   18.7120   23.3022 C   0  0  0  0  0  0  0  0  0  0  0  0
   18.4688   18.0977   24.2132 H   0  0  0  0  0  0  0  0  0  0  0  0
   18.7764   19.7218   23.5963 H   0  0  0  0  0  0  0  0  0  0  0  0
   17.0227   18.7759   22.7393 C   0  0  0  0  0  0  0  0  0  0  0  0
   16.6921   17.7686   22.4494 H   0  0  0  0  0  0  0  0  0  0  0  0
   17.0083   19.3886   21.8270 H   0  0  0  0  0  0  0  0  0  0  0  0
   16.0314   19.3636   23.7664 C   0  0  0  0  0  0  0  0  0  0  0  0
   15.9984   18.7525   24.6778 H   0  0  0  0  0  0  0  0  0  0  0  0
   15.0169   19.4003   23.3488 H   0  0  0  0  0  0  0  0  0  0  0  0
   16.3158   20.3853   24.0500 H   0  0  0  0  0  0  0  0  0  0  0  0
   23.5034   20.5855   24.0401 C   0  0  0  0  0  0  0  0  0  0  0  0
   24.5282   20.4813   24.4036 H   0  0  0  0  0  0  0  0  0  0  0  0
   23.4920   21.2078   23.1426 H   0  0  0  0  0  0  0  0  0  0  0  0
   22.8820   21.0410   24.8143 H   0  0  0  0  0  0  0  0  0  0  0  0
  1  2  1  0  0  0  0
  1  3  1  0  0  0  0
  1  4  1  0  0  0  0
  4  5  1  0  0  0  0
  4  6  1  0  0  0  0
  4  7  1  0  0  0  0
  7  8  1  0  0  0  0
  7  9  1  0  0  0  0
  7 10  1  0  0  0  0
 10 11  1  0  0  0  0
 10 12  1  0  0  0  0
 10 13  1  0  0  0  0
 13 14  1  0  0  0  0
 13 15  1  0  0  0  0
 13 16  1  0  0  0  0
 16 17  1  0  0  0  0
 16 18  1  0  0  0  0
 16 19  1  0  0  0  0
 19 20  1  0  0  0  0
 19 21  1  0  0  0  0
 19 22  1  0  0  0  0
  1 23  1  0  0  0  0
 23 24  1  0  0  0  0
 23 25  1  0  0  0  0
 23 26  1  0  0  0  0
M  END
> <VConfSearch Rank>
648

> <Conf_Id>
45

> <Delta U+W>
0.471

> <U+W>
22.313

> <U>
71.138

> <W>
-48.825

> <W(PB)>
-51.169

> <W(SA)>
2.344

> <Valence>
2.016

> <Coulomb>
68.932

> <VdW>
0.190

> <VdW6>
-5.902

> <VdW12>
6.092

> <Bond>
0.149

> <Angle>
0.477

> <Pdih>
1.390

> <Idih>
0.000

> <Tether>
0.000

$$$$
VeraChem MOL file


 26 25  0  0  0  0  0  0  0  0999 V2000     
   22.5616   18.9074   24.0305 N   0  3  0  0  0  0  0  0  0  0  0  0
   22.4758   18.4904   23.0914 H   0  0  0  0  0  0  0  0  0  0  0  0
   22.2400   18.1793   24.6870 H   0  0  0  0  0  0  0  0  0  0  0  0
   21.6769   20.1345   24.1379 C   0  0  0  0  0  0  0  0  0  0  0  0
   22.0418   20.8769   23.4237 H   0  0  0  0  0  0  0  0  0  0  0  0
   21.7982   20.5415   25.1450 H   0  0  0  0  0  0  0  0  0  0  0  0
   20.1842   19.8530   23.8765 C   0  0  0  0  0  0  0  0  0  0  0  0
   19.8277   19.1085   24.5993 H   0  0  0  0  0  0  0  0  0  0  0  0
   19.6187   20.7745   24.0684 H   0  0  0  0  0  0  0  0  0  0  0  0
   19.9135   19.3766   22.4272 C   0  0  0  0  0  0  0  0  0  0  0  0
   20.4009   18.4085   22.2505 H   0  0  0  0  0  0  0  0  0  0  0  0
   20.3734   20.0873   21.7265 H   0  0  0  0  0  0  0  0  0  0  0  0
   18.4071   19.2587   22.0880 C   0  0  0  0  0  0  0  0  0  0  0  0
   17.9178   20.2308   22.2396 H   0  0  0  0  0  0  0  0  0  0  0  0
   18.3080   19.0282   21.0182 H   0  0  0  0  0  0  0  0  0  0  0  0
   17.6717   18.1712   22.9069 C   0  0  0  0  0  0  0  0  0  0  0  0
   17.6928   18.4218   23.9758 H   0  0  0  0  0  0  0  0  0  0  0  0
   18.1896   17.2084   22.7950 H   0  0  0  0  0  0  0  0  0  0  0  0
   16.2028   18.0165   22.4581 C   0  0  0  0  0  0  0  0  0  0  0  0
   15.6499   18.9562   22.5864 H   0  0  0  0  0  0  0  0  0  0  0  0
   15.6957   17.2439   23.0505 H   0  0  0  0  0  0  0  0  0  0  0  0
   16.1408   17.7249   21.4015 H   0  0  0  0  0  0  0  0  0  0  0  0
   24.0084   19.2846   24.3168 C   0  0  0  0  0  0  0  0  0  0  0  0
   24.0795   19.6942   25.3268 H   0  0  0  0  0  0  0  0  0  0  0  0
   24.6339   18.3929   24.2356 H   0  0  0  0  0  0  0  0  0  0  0  0
   24.3352   20.0320   23.5905 H   0  0  0  0  0  0  0  0  0  0  0  0
  1  2  1  0  0  0  0
  1  3  1  0  0  0  0
  1  4  1  0  0  0  0
  4  5  1  0  0  0  0
  4  6  1  0  0  0  0
  4  7  1  0  0  0  0
  7  8  1  0  0  0  0
  7  9  1  0  0  0  0
  7 10  1  0  0  0  0
 10 11  1  0  0  0  0
 10 12  1  0  0  0  0
 10 13  1  0  0  0  0
 13 14  1  0  0  0  0
 13 15  1  0  0  0  0
 13 16  1  0  0  0  0
 16 17  1  0  0  0  0
 16 18  1  0  0  0  0
 16 19  1  0  0  0  0
 19 20  1  0  0  0  0
 19 21  1  0  0  0  0
 19 22  1  0  0  0  0
  1 23  1  0  0  0  0
 23 24  1  0  0  0  0
 23 25  1  0  0  0  0
 23 26  1  0  0  0  0
M  END
> <VConfSearch Rank>
649

> <Conf_Id>
143

> <Delta U+W>
0.915

> <U+W>
22.757

> <U>
71.994

> <W>
-49.237

> <W(PB)>
-51.537

> <W(SA)>
2.300

> <Valence>
2.376

> <Coulomb>
69.315

> <VdW>
0.303

> <VdW6>
-6.508

> <VdW12>
6.810

> <Bond>
0.182

> <Angle>
0.660

> <Pdih>
1.534

> <Idih>
0.000

> <Tether>
0.000

$$$$
VeraChem MOL file


 26 25  0  0  0  0  0  0  0  0999 V2000     
   17.5878   18.2490   22.7920 N   0  3  0  0  0  0  0  0  0  0  0  0
   18.1005   17.7775   22.0318 H   0  0  0  0  0  0  0  0  0  0  0  0
   17.3138   19.1682   22.4118 H   0  0  0  0  0  0  0  0  0  0  0  0
   18.4915   18.4309   23.9964 C   0  0  0  0  0  0  0  0  0  0  0  0
   18.7683   17.4397   24.3644 H   0  0  0  0  0  0  0  0  0  0  0  0
   17.9067   18.9315   24.7723 H   0  0  0  0  0  0  0  0  0  0  0  0
   19.7641   19.2518   23.7084 C   0  0  0  0  0  0  0  0  0  0  0  0
   19.4843   20.2362   23.3104 H   0  0  0  0  0  0  0  0  0  0  0  0
   20.2733   19.4258   24.6642 H   0  0  0  0  0  0  0  0  0  0  0  0
   20.7306   18.5358   22.7335 C   0  0  0  0  0  0  0  0  0  0  0  0
   20.1919   18.2665   21.8156 H   0  0  0  0  0  0  0  0  0  0  0  0
   21.0631   17.5889   23.1811 H   0  0  0  0  0  0  0  0  0  0  0  0
   21.9696   19.3763   22.3288 C   0  0  0  0  0  0  0  0  0  0  0  0
   22.5495   18.7831   21.6082 H   0  0  0  0  0  0  0  0  0  0  0  0
   21.6537   20.2761   21.7830 H   0  0  0  0  0  0  0  0  0  0  0  0
   22.9086   19.7620   23.5011 C   0  0  0  0  0  0  0  0  0  0  0  0
   23.9463   19.7416   23.1395 H   0  0  0  0  0  0  0  0  0  0  0  0
   22.8531   19.0089   24.2995 H   0  0  0  0  0  0  0  0  0  0  0  0
   22.6314   21.1729   24.0715 C   0  0  0  0  0  0  0  0  0  0  0  0
   21.6162   21.2647   24.4725 H   0  0  0  0  0  0  0  0  0  0  0  0
   22.7587   21.9402   23.2969 H   0  0  0  0  0  0  0  0  0  0  0  0
   23.3320   21.4026   24.8847 H   0  0  0  0  0  0  0  0  0  0  0  0
   16.3568   17.4440   23.1845 C   0  0  0  0  0  0  0  0  0  0  0  0
   15.8134   17.9777   23.9673 H   0  0  0  0  0  0  0  0  0  0  0  0
   15.7155   17.3203   22.3090 H   0  0  0  0  0  0  0  0  0  0  0  0
   16.6705   16.4650   23.5534 H   0  0  0  0  0  0  0  0  0  0  0  0
  1  2  1  0  0  0  0
  1  3  1  0  0  0  0
  1  4  1  0  0  0  0
  4  5  1  0  0  0  0
  4  6  1  0  0  0  0
  4  7  1  0  0  0  0
  7  8  1  0  0  0  0
  7  9  1  0  0  0  0
  7 10  1  0  0  0  0
 10 11  1  0  0  0  0
 10 12  1  0  0  0  0
 10 13  1  0  0  0  0
 13 14  1  0  0  0  0
 13 15  1  0  0  0  0
 13 16  1  0  0  0  0
 16 17  1  0  0  0  0
 16 18  1  0  0  0  0
 16 19  1  0  0  0  0
 19 20  1  0  0  0  0
 19 21  1  0  0  0  0
 19 22  1  0  0  0  0
  1 23  1  0  0  0  0
 23 24  1  0  0  0  0
 23 25  1  0  0  0  0
 23 26  1  0  0  0  0
M  END
> <VConfSearch Rank>
650

> <Conf_Id>
76

> <Delta U+W>
3.468

> <U+W>
25.310

> <U>
74.594

> <W>
-49.283

> <W(PB)>
-51.537

> <W(SA)>
2.253

> <Valence>
4.886

> <Coulomb>
69.332

> <VdW>
0.376

> <VdW6>
-7.329

> <VdW12>
7.705

> <Bond>
0.232

> <Angle>
1.251

> <Pdih>
3.403

> <Idih>
0.000

> <Tether>
0.000

$$$$
VeraChem MOL file


 26 25  0  0  0  0  0  0  0  0999 V2000     
   19.7632   16.4766   22.4215 N   0  3  0  0  0  0  0  0  0  0  0  0
   20.5183   16.7117   21.7587 H   0  0  0  0  0  0  0  0  0  0  0  0
   18.8876   16.5627   21.8822 H   0  0  0  0  0  0  0  0  0  0  0  0
   19.7615   17.4530   23.5806 C   0  0  0  0  0  0  0  0  0  0  0  0
   20.7052   17.3354   24.1193 H   0  0  0  0  0  0  0  0  0  0  0  0
   18.9450   17.1751   24.2518 H   0  0  0  0  0  0  0  0  0  0  0  0
   19.5952   18.9191   23.1419 C   0  0  0  0  0  0  0  0  0  0  0  0
   20.4030   19.1816   22.4496 H   0  0  0  0  0  0  0  0  0  0  0  0
   18.6538   19.0268   22.5869 H   0  0  0  0  0  0  0  0  0  0  0  0
   19.5889   19.8740   24.3600 C   0  0  0  0  0  0  0  0  0  0  0  0
   20.4995   19.7365   24.9595 H   0  0  0  0  0  0  0  0  0  0  0  0
   18.7512   19.5893   25.0119 H   0  0  0  0  0  0  0  0  0  0  0  0
   19.4252   21.3678   23.9750 C   0  0  0  0  0  0  0  0  0  0  0  0
   18.8380   21.4620   23.0512 H   0  0  0  0  0  0  0  0  0  0  0  0
   18.8276   21.8584   24.7558 H   0  0  0  0  0  0  0  0  0  0  0  0
   20.7548   22.1542   23.8439 C   0  0  0  0  0  0  0  0  0  0  0  0
   21.2861   22.1429   24.8058 H   0  0  0  0  0  0  0  0  0  0  0  0
   20.5173   23.2079   23.6409 H   0  0  0  0  0  0  0  0  0  0  0  0
   21.6953   21.6367   22.7335 C   0  0  0  0  0  0  0  0  0  0  0  0
   21.1737   21.5723   21.7698 H   0  0  0  0  0  0  0  0  0  0  0  0
   22.0980   20.6470   22.9813 H   0  0  0  0  0  0  0  0  0  0  0  0
   22.5494   22.3146   22.6080 H   0  0  0  0  0  0  0  0  0  0  0  0
   19.9325   15.0557   22.9414 C   0  0  0  0  0  0  0  0  0  0  0  0
   20.8801   14.9807   23.4794 H   0  0  0  0  0  0  0  0  0  0  0  0
   19.1052   14.8184   23.6139 H   0  0  0  0  0  0  0  0  0  0  0  0
   19.9319   14.3629   22.0970 H   0  0  0  0  0  0  0  0  0  0  0  0
  1  2  1  0  0  0  0
  1  3  1  0  0  0  0
  1  4  1  0  0  0  0
  4  5  1  0  0  0  0
  4  6  1  0  0  0  0
  4  7  1  0  0  0  0
  7  8  1  0  0  0  0
  7  9  1  0  0  0  0
  7 10  1  0  0  0  0
 10 11  1  0  0  0  0
 10 12  1  0  0  0  0
 10 13  1  0  0  0  0
 13 14  1  0  0  0  0
 13 15  1  0  0  0  0
 13 16  1  0  0  0  0
 16 17  1  0  0  0  0
 16 18  1  0  0  0  0
 16 19  1  0  0  0  0
 19 20  1  0  0  0  0
 19 21  1  0  0  0  0
 19 22  1  0  0  0  0
  1 23  1  0  0  0  0
 23 24  1  0  0  0  0
 23 25  1  0  0  0  0
 23 26  1  0  0  0  0
M  END
> <VConfSearch Rank>
651

> <Conf_Id>
123

> <Delta U+W>
3.101

> <U+W>
24.943

> <U>
74.070

> <W>
-49.127

> <W(PB)>
-51.421

> <W(SA)>
2.295

> <Valence>
4.690

> <Coulomb>
69.115

> <VdW>
0.266

> <VdW6>
-6.809

> <VdW12>
7.075

> <Bond>
0.212

> <Angle>
1.133

> <Pdih>
3.345

> <Idih>
0.000

> <Tether>
0.000

$$$$
VeraChem MOL file


 26 25  0  0  0  0  0  0  0  0999 V2000     
   20.8203   21.6295   23.3850 N   0  3  0  0  0  0  0  0  0  0  0  0
   21.8221   21.5795   23.6270 H   0  0  0  0  0  0  0  0  0  0  0  0
   20.3143   21.4917   24.2728 H   0  0  0  0  0  0  0  0  0  0  0  0
   20.4643   20.5274   22.4060 C   0  0  0  0  0  0  0  0  0  0  0  0
   21.0205   20.7139   21.4839 H   0  0  0  0  0  0  0  0  0  0  0  0
   19.3974   20.6063   22.1827 H   0  0  0  0  0  0  0  0  0  0  0  0
   20.7833   19.1084   22.9165 C   0  0  0  0  0  0  0  0  0  0  0  0
   20.5953   18.4012   22.1010 H   0  0  0  0  0  0  0  0  0  0  0  0
   21.8548   19.0356   23.1452 H   0  0  0  0  0  0  0  0  0  0  0  0
   19.9503   18.7215   24.1653 C   0  0  0  0  0  0  0  0  0  0  0  0
   18.8801   18.8840   23.9767 H   0  0  0  0  0  0  0  0  0  0  0  0
   20.2203   19.3966   24.9884 H   0  0  0  0  0  0  0  0  0  0  0  0
   20.1911   17.2638   24.6380 C   0  0  0  0  0  0  0  0  0  0  0  0
   21.2102   16.9427   24.3820 H   0  0  0  0  0  0  0  0  0  0  0  0
   20.1435   17.2475   25.7357 H   0  0  0  0  0  0  0  0  0  0  0  0
   19.1592   16.2330   24.1122 C   0  0  0  0  0  0  0  0  0  0  0  0
   18.1539   16.5076   24.4609 H   0  0  0  0  0  0  0  0  0  0  0  0
   19.3810   15.2562   24.5645 H   0  0  0  0  0  0  0  0  0  0  0  0
   19.1427   16.0745   22.5760 C   0  0  0  0  0  0  0  0  0  0  0  0
   20.1464   15.8563   22.1890 H   0  0  0  0  0  0  0  0  0  0  0  0
   18.7673   16.9809   22.0853 H   0  0  0  0  0  0  0  0  0  0  0  0
   18.4834   15.2472   22.2831 H   0  0  0  0  0  0  0  0  0  0  0  0
   20.4824   22.9865   22.7834 C   0  0  0  0  0  0  0  0  0  0  0  0
   19.4128   23.0265   22.5657 H   0  0  0  0  0  0  0  0  0  0  0  0
   20.7430   23.7703   23.4982 H   0  0  0  0  0  0  0  0  0  0  0  0
   21.0530   23.1229   21.8621 H   0  0  0  0  0  0  0  0  0  0  0  0
  1  2  1  0  0  0  0
  1  3  1  0  0  0  0
  1  4  1  0  0  0  0
  4  5  1  0  0  0  0
  4  6  1  0  0  0  0
  4  7  1  0  0  0  0
  7  8  1  0  0  0  0
  7  9  1  0  0  0  0
  7 10  1  0  0  0  0
 10 11  1  0  0  0  0
 10 12  1  0  0  0  0
 10 13  1  0  0  0  0
 13 14  1  0  0  0  0
 13 15  1  0  0  0  0
 13 16  1  0  0  0  0
 16 17  1  0  0  0  0
 16 18  1  0  0  0  0
 16 19  1  0  0  0  0
 19 20  1  0  0  0  0
 19 21  1  0  0  0  0
 19 22  1  0  0  0  0
  1 23  1  0  0  0  0
 23 24  1  0  0  0  0
 23 25  1  0  0  0  0
 23 26  1  0  0  0  0
M  END
> <VConfSearch Rank>
652

> <Conf_Id>
111

> <Delta U+W>
3.383

> <U+W>
25.225

> <U>
74.516

> <W>
-49.292

> <W(PB)>
-51.558

> <W(SA)>
2.266

> <Valence>
4.842

> <Coulomb>
69.333

> <VdW>
0.342

> <VdW6>
-7.369

> <VdW12>
7.711

> <Bond>
0.232

> <Angle>
1.153

> <Pdih>
3.457

> <Idih>
0.000

> <Tether>
0.000

$$$$
VeraChem MOL file


 26 25  0  0  0  0  0  0  0  0999 V2000     
   18.3627   19.6196   21.6272 N   0  3  0  0  0  0  0  0  0  0  0  0
   17.7497   20.4185   21.8521 H   0  0  0  0  0  0  0  0  0  0  0  0
   18.2278   18.9426   22.3931 H   0  0  0  0  0  0  0  0  0  0  0  0
   19.8100   20.0692   21.5829 C   0  0  0  0  0  0  0  0  0  0  0  0
   19.9074   20.7916   20.7685 H   0  0  0  0  0  0  0  0  0  0  0  0
   20.4253   19.1998   21.3396 H   0  0  0  0  0  0  0  0  0  0  0  0
   20.3055   20.7089   22.8965 C   0  0  0  0  0  0  0  0  0  0  0  0
   21.3417   21.0439   22.7553 H   0  0  0  0  0  0  0  0  0  0  0  0
   19.7172   21.6138   23.0984 H   0  0  0  0  0  0  0  0  0  0  0  0
   20.2362   19.7687   24.1266 C   0  0  0  0  0  0  0  0  0  0  0  0
   19.1924   19.4961   24.3315 H   0  0  0  0  0  0  0  0  0  0  0  0
   20.5820   20.3311   25.0036 H   0  0  0  0  0  0  0  0  0  0  0  0
   21.0910   18.4858   23.9636 C   0  0  0  0  0  0  0  0  0  0  0  0
   20.7617   17.9343   23.0732 H   0  0  0  0  0  0  0  0  0  0  0  0
   22.1401   18.7601   23.7866 H   0  0  0  0  0  0  0  0  0  0  0  0
   21.0056   17.5300   25.1785 C   0  0  0  0  0  0  0  0  0  0  0  0
   21.5417   16.6022   24.9341 H   0  0  0  0  0  0  0  0  0  0  0  0
   19.9594   17.2425   25.3533 H   0  0  0  0  0  0  0  0  0  0  0  0
   21.6057   18.1229   26.4739 C   0  0  0  0  0  0  0  0  0  0  0  0
   21.0252   18.9819   26.8321 H   0  0  0  0  0  0  0  0  0  0  0  0
   22.6420   18.4488   26.3163 H   0  0  0  0  0  0  0  0  0  0  0  0
   21.6089   17.3716   27.2742 H   0  0  0  0  0  0  0  0  0  0  0  0
   17.9701   19.0020   20.2924 C   0  0  0  0  0  0  0  0  0  0  0  0
   16.9268   18.6820   20.3387 H   0  0  0  0  0  0  0  0  0  0  0  0
   18.0928   19.7464   19.5026 H   0  0  0  0  0  0  0  0  0  0  0  0
   18.6116   18.1410   20.0924 H   0  0  0  0  0  0  0  0  0  0  0  0
  1  2  1  0  0  0  0
  1  3  1  0  0  0  0
  1  4  1  0  0  0  0
  4  5  1  0  0  0  0
  4  6  1  0  0  0  0
  4  7  1  0  0  0  0
  7  8  1  0  0  0  0
  7  9  1  0  0  0  0
  7 10  1  0  0  0  0
 10 11  1  0  0  0  0
 10 12  1  0  0  0  0
 10 13  1  0  0  0  0
 13 14  1  0  0  0  0
 13 15  1  0  0  0  0
 13 16  1  0  0  0  0
 16 17  1  0  0  0  0
 16 18  1  0  0  0  0
 16 19  1  0  0  0  0
 19 20  1  0  0  0  0
 19 21  1  0  0  0  0
 19 22  1  0  0  0  0
  1 23  1  0  0  0  0
 23 24  1  0  0  0  0
 23 25  1  0  0  0  0
 23 26  1  0  0  0  0
M  END
> <VConfSearch Rank>
653

> <Conf_Id>
126

> <Delta U+W>
1.519

> <U+W>
23.361

> <U>
72.579

> <W>
-49.218

> <W(PB)>
-51.496

> <W(SA)>
2.279

> <Valence>
2.678

> <Coulomb>
69.622

> <VdW>
0.279

> <VdW6>
-7.328

> <VdW12>
7.608

> <Bond>
0.212

> <Angle>
0.911

> <Pdih>
1.555

> <Idih>
0.000

> <Tether>
0.000

$$$$
VeraChem MOL file


 26 25  0  0  0  0  0  0  0  0999 V2000     
   20.3382   21.1151   21.9720 N   0  3  0  0  0  0  0  0  0  0  0  0
   21.0851   20.4211   22.1254 H   0  0  0  0  0  0  0  0  0  0  0  0
   20.6237   21.9518   22.5040 H   0  0  0  0  0  0  0  0  0  0  0  0
   19.0212   20.5839   22.5030 C   0  0  0  0  0  0  0  0  0  0  0  0
   18.7514   19.7037   21.9148 H   0  0  0  0  0  0  0  0  0  0  0  0
   18.2617   21.3511   22.3320 H   0  0  0  0  0  0  0  0  0  0  0  0
   19.0533   20.2207   24.0021 C   0  0  0  0  0  0  0  0  0  0  0  0
   19.2677   21.1260   24.5855 H   0  0  0  0  0  0  0  0  0  0  0  0
   18.0504   19.8924   24.3059 H   0  0  0  0  0  0  0  0  0  0  0  0
   20.0826   19.1211   24.3674 C   0  0  0  0  0  0  0  0  0  0  0  0
   20.0412   18.9645   25.4531 H   0  0  0  0  0  0  0  0  0  0  0  0
   21.0997   19.4725   24.1487 H   0  0  0  0  0  0  0  0  0  0  0  0
   19.8244   17.7770   23.6397 C   0  0  0  0  0  0  0  0  0  0  0  0
   18.8166   17.4125   23.8820 H   0  0  0  0  0  0  0  0  0  0  0  0
   19.8419   17.9366   22.5536 H   0  0  0  0  0  0  0  0  0  0  0  0
   20.8646   16.6821   23.9803 C   0  0  0  0  0  0  0  0  0  0  0  0
   21.8740   17.0363   23.7286 H   0  0  0  0  0  0  0  0  0  0  0  0
   20.6779   15.8085   23.3400 H   0  0  0  0  0  0  0  0  0  0  0  0
   20.8248   16.2312   25.4584 C   0  0  0  0  0  0  0  0  0  0  0  0
   19.8171   15.9031   25.7445 H   0  0  0  0  0  0  0  0  0  0  0  0
   21.1295   17.0384   26.1357 H   0  0  0  0  0  0  0  0  0  0  0  0
   21.5101   15.3893   25.6213 H   0  0  0  0  0  0  0  0  0  0  0  0
   20.2071   21.4407   20.4908 C   0  0  0  0  0  0  0  0  0  0  0  0
   19.9356   20.5337   19.9463 H   0  0  0  0  0  0  0  0  0  0  0  0
   19.4320   22.1986   20.3572 H   0  0  0  0  0  0  0  0  0  0  0  0
   21.1622   21.8209   20.1216 H   0  0  0  0  0  0  0  0  0  0  0  0
  1  2  1  0  0  0  0
  1  3  1  0  0  0  0
  1  4  1  0  0  0  0
  4  5  1  0  0  0  0
  4  6  1  0  0  0  0
  4  7  1  0  0  0  0
  7  8  1  0  0  0  0
  7  9  1  0  0  0  0
  7 10  1  0  0  0  0
 10 11  1  0  0  0  0
 10 12  1  0  0  0  0
 10 13  1  0  0  0  0
 13 14  1  0  0  0  0
 13 15  1  0  0  0  0
 13 16  1  0  0  0  0
 16 17  1  0  0  0  0
 16 18  1  0  0  0  0
 16 19  1  0  0  0  0
 19 20  1  0  0  0  0
 19 21  1  0  0  0  0
 19 22  1  0  0  0  0
  1 23  1  0  0  0  0
 23 24  1  0  0  0  0
 23 25  1  0  0  0  0
 23 26  1  0  0  0  0
M  END
> <VConfSearch Rank>
654

> <Conf_Id>
134

> <Delta U+W>
1.464

> <U+W>
23.306

> <U>
72.579

> <W>
-49.273

> <W(PB)>
-51.540

> <W(SA)>
2.267

> <Valence>
2.677

> <Coulomb>
69.622

> <VdW>
0.280

> <VdW6>
-7.328

> <VdW12>
7.608

> <Bond>
0.212

> <Angle>
0.911

> <Pdih>
1.555

> <Idih>
0.000

> <Tether>
0.000

$$$$
VeraChem MOL file


 26 25  0  0  0  0  0  0  0  0999 V2000     
   20.5004   20.8706   25.4438 N   0  3  0  0  0  0  0  0  0  0  0  0
   21.4641   20.9607   25.0862 H   0  0  0  0  0  0  0  0  0  0  0  0
   20.5635   20.2205   26.2427 H   0  0  0  0  0  0  0  0  0  0  0  0
   19.5963   20.2956   24.3720 C   0  0  0  0  0  0  0  0  0  0  0  0
   19.5629   21.0080   23.5438 H   0  0  0  0  0  0  0  0  0  0  0  0
   18.5912   20.2090   24.7925 H   0  0  0  0  0  0  0  0  0  0  0  0
   20.0617   18.9223   23.8552 C   0  0  0  0  0  0  0  0  0  0  0  0
   21.0780   19.0177   23.4525 H   0  0  0  0  0  0  0  0  0  0  0  0
   20.1091   18.2136   24.6926 H   0  0  0  0  0  0  0  0  0  0  0  0
   19.1080   18.3779   22.7658 C   0  0  0  0  0  0  0  0  0  0  0  0
   19.0896   19.0664   21.9104 H   0  0  0  0  0  0  0  0  0  0  0  0
   18.0836   18.3641   23.1633 H   0  0  0  0  0  0  0  0  0  0  0  0
   19.4649   16.9468   22.2866 C   0  0  0  0  0  0  0  0  0  0  0  0
   19.3680   16.2522   23.1324 H   0  0  0  0  0  0  0  0  0  0  0  0
   18.7172   16.6260   21.5482 H   0  0  0  0  0  0  0  0  0  0  0  0
   20.8781   16.7877   21.6694 C   0  0  0  0  0  0  0  0  0  0  0  0
   21.0127   15.7386   21.3709 H   0  0  0  0  0  0  0  0  0  0  0  0
   21.6482   16.9842   22.4273 H   0  0  0  0  0  0  0  0  0  0  0  0
   21.1164   17.6896   20.4370 C   0  0  0  0  0  0  0  0  0  0  0  0
   20.3466   17.5242   19.6721 H   0  0  0  0  0  0  0  0  0  0  0  0
   22.0921   17.4716   19.9839 H   0  0  0  0  0  0  0  0  0  0  0  0
   21.1090   18.7524   20.7087 H   0  0  0  0  0  0  0  0  0  0  0  0
   19.9705   22.2239   25.8973 C   0  0  0  0  0  0  0  0  0  0  0  0
   18.9638   22.0981   26.3018 H   0  0  0  0  0  0  0  0  0  0  0  0
   20.6304   22.6267   26.6690 H   0  0  0  0  0  0  0  0  0  0  0  0
   19.9440   22.9038   25.0430 H   0  0  0  0  0  0  0  0  0  0  0  0
  1  2  1  0  0  0  0
  1  3  1  0  0  0  0
  1  4  1  0  0  0  0
  4  5  1  0  0  0  0
  4  6  1  0  0  0  0
  4  7  1  0  0  0  0
  7  8  1  0  0  0  0
  7  9  1  0  0  0  0
  7 10  1  0  0  0  0
 10 11  1  0  0  0  0
 10 12  1  0  0  0  0
 10 13  1  0  0  0  0
 13 14  1  0  0  0  0
 13 15  1  0  0  0  0
 13 16  1  0  0  0  0
 16 17  1  0  0  0  0
 16 18  1  0  0  0  0
 16 19  1  0  0  0  0
 19 20  1  0  0  0  0
 19 21  1  0  0  0  0
 19 22  1  0  0  0  0
  1 23  1  0  0  0  0
 23 24  1  0  0  0  0
 23 25  1  0  0  0  0
 23 26  1  0  0  0  0
M  END
> <VConfSearch Rank>
655

> <Conf_Id>
30

> <Delta U+W>
0.910

> <U+W>
22.752

> <U>
71.870

> <W>
-49.118

> <W(PB)>
-51.409

> <W(SA)>
2.290

> <Valence>
2.682

> <Coulomb>
68.933

> <VdW>
0.255

> <VdW6>
-6.833

> <VdW12>
7.088

> <Bond>
0.205

> <Angle>
1.003

> <Pdih>
1.473

> <Idih>
0.000

> <Tether>
0.000

$$$$
VeraChem MOL file


 26 25  0  0  0  0  0  0  0  0999 V2000     
   20.2681   21.0695   21.3860 N   0  3  0  0  0  0  0  0  0  0  0  0
   20.9232   20.6174   20.7293 H   0  0  0  0  0  0  0  0  0  0  0  0
   20.8622   21.5446   22.0832 H   0  0  0  0  0  0  0  0  0  0  0  0
   19.4013   20.0258   22.0615 C   0  0  0  0  0  0  0  0  0  0  0  0
   18.7964   19.5424   21.2902 H   0  0  0  0  0  0  0  0  0  0  0  0
   18.7301   20.5430   22.7517 H   0  0  0  0  0  0  0  0  0  0  0  0
   20.2117   18.9634   22.8259 C   0  0  0  0  0  0  0  0  0  0  0  0
   20.8960   18.4570   22.1323 H   0  0  0  0  0  0  0  0  0  0  0  0
   20.8283   19.4618   23.5845 H   0  0  0  0  0  0  0  0  0  0  0  0
   19.2845   17.9222   23.4957 C   0  0  0  0  0  0  0  0  0  0  0  0
   18.6217   17.4916   22.7322 H   0  0  0  0  0  0  0  0  0  0  0  0
   18.6259   18.4218   24.2186 H   0  0  0  0  0  0  0  0  0  0  0  0
   20.0490   16.7639   24.1878 C   0  0  0  0  0  0  0  0  0  0  0  0
   19.3171   16.0547   24.5985 H   0  0  0  0  0  0  0  0  0  0  0  0
   20.6144   16.2054   23.4292 H   0  0  0  0  0  0  0  0  0  0  0  0
   21.0193   17.1925   25.3183 C   0  0  0  0  0  0  0  0  0  0  0  0
   21.8340   17.8042   24.9084 H   0  0  0  0  0  0  0  0  0  0  0  0
   21.4981   16.2919   25.7277 H   0  0  0  0  0  0  0  0  0  0  0  0
   20.3242   17.9531   26.4704 C   0  0  0  0  0  0  0  0  0  0  0  0
   19.9307   18.9205   26.1342 H   0  0  0  0  0  0  0  0  0  0  0  0
   21.0338   18.1504   27.2843 H   0  0  0  0  0  0  0  0  0  0  0  0
   19.4927   17.3682   26.8844 H   0  0  0  0  0  0  0  0  0  0  0  0
   19.3912   22.0776   20.6562 C   0  0  0  0  0  0  0  0  0  0  0  0
   20.0275   22.8232   20.1742 H   0  0  0  0  0  0  0  0  0  0  0  0
   18.7968   21.5570   19.9020 H   0  0  0  0  0  0  0  0  0  0  0  0
   18.7305   22.5662   21.3757 H   0  0  0  0  0  0  0  0  0  0  0  0
  1  2  1  0  0  0  0
  1  3  1  0  0  0  0
  1  4  1  0  0  0  0
  4  5  1  0  0  0  0
  4  6  1  0  0  0  0
  4  7  1  0  0  0  0
  7  8  1  0  0  0  0
  7  9  1  0  0  0  0
  7 10  1  0  0  0  0
 10 11  1  0  0  0  0
 10 12  1  0  0  0  0
 10 13  1  0  0  0  0
 13 14  1  0  0  0  0
 13 15  1  0  0  0  0
 13 16  1  0  0  0  0
 16 17  1  0  0  0  0
 16 18  1  0  0  0  0
 16 19  1  0  0  0  0
 19 20  1  0  0  0  0
 19 21  1  0  0  0  0
 19 22  1  0  0  0  0
  1 23  1  0  0  0  0
 23 24  1  0  0  0  0
 23 25  1  0  0  0  0
 23 26  1  0  0  0  0
M  END
> <VConfSearch Rank>
656

> <Conf_Id>
29

> <Delta U+W>
0.886

> <U+W>
22.729

> <U>
71.870

> <W>
-49.141

> <W(PB)>
-51.404

> <W(SA)>
2.262

> <Valence>
2.682

> <Coulomb>
68.933

> <VdW>
0.255

> <VdW6>
-6.833

> <VdW12>
7.088

> <Bond>
0.205

> <Angle>
1.003

> <Pdih>
1.473

> <Idih>
0.000

> <Tether>
0.000

$$$$
VeraChem MOL file


 26 25  0  0  0  0  0  0  0  0999 V2000     
   19.1754   20.8102   21.4898 N   0  3  0  0  0  0  0  0  0  0  0  0
   19.8934   21.1538   20.8332 H   0  0  0  0  0  0  0  0  0  0  0  0
   19.1624   21.4921   22.2641 H   0  0  0  0  0  0  0  0  0  0  0  0
   19.5547   19.4376   22.0076 C   0  0  0  0  0  0  0  0  0  0  0  0
   19.5695   18.7503   21.1580 H   0  0  0  0  0  0  0  0  0  0  0  0
   18.7727   19.1144   22.6990 H   0  0  0  0  0  0  0  0  0  0  0  0
   20.9205   19.4108   22.7196 C   0  0  0  0  0  0  0  0  0  0  0  0
   21.6937   19.7709   22.0280 H   0  0  0  0  0  0  0  0  0  0  0  0
   20.9116   20.1118   23.5639 H   0  0  0  0  0  0  0  0  0  0  0  0
   21.3099   17.9945   23.2113 C   0  0  0  0  0  0  0  0  0  0  0  0
   22.2969   18.0396   23.6907 H   0  0  0  0  0  0  0  0  0  0  0  0
   21.4347   17.3380   22.3391 H   0  0  0  0  0  0  0  0  0  0  0  0
   20.2907   17.3389   24.1821 C   0  0  0  0  0  0  0  0  0  0  0  0
   19.3522   17.1408   23.6469 H   0  0  0  0  0  0  0  0  0  0  0  0
   20.6739   16.3529   24.4790 H   0  0  0  0  0  0  0  0  0  0  0  0
   19.9758   18.1581   25.4598 C   0  0  0  0  0  0  0  0  0  0  0  0
   19.2395   17.6038   26.0584 H   0  0  0  0  0  0  0  0  0  0  0  0
   19.4923   19.1074   25.1931 H   0  0  0  0  0  0  0  0  0  0  0  0
   21.2206   18.4338   26.3336 C   0  0  0  0  0  0  0  0  0  0  0  0
   20.9329   18.9400   27.2641 H   0  0  0  0  0  0  0  0  0  0  0  0
   21.9412   19.0788   25.8157 H   0  0  0  0  0  0  0  0  0  0  0  0
   21.7281   17.4986   26.6033 H   0  0  0  0  0  0  0  0  0  0  0  0
   17.8149   20.7490   20.8094 C   0  0  0  0  0  0  0  0  0  0  0  0
   17.5537   21.7435   20.4408 H   0  0  0  0  0  0  0  0  0  0  0  0
   17.8624   20.0468   19.9741 H   0  0  0  0  0  0  0  0  0  0  0  0
   17.0667   20.4151   21.5316 H   0  0  0  0  0  0  0  0  0  0  0  0
  1  2  1  0  0  0  0
  1  3  1  0  0  0  0
  1  4  1  0  0  0  0
  4  5  1  0  0  0  0
  4  6  1  0  0  0  0
  4  7  1  0  0  0  0
  7  8  1  0  0  0  0
  7  9  1  0  0  0  0
  7 10  1  0  0  0  0
 10 11  1  0  0  0  0
 10 12  1  0  0  0  0
 10 13  1  0  0  0  0
 13 14  1  0  0  0  0
 13 15  1  0  0  0  0
 13 16  1  0  0  0  0
 16 17  1  0  0  0  0
 16 18  1  0  0  0  0
 16 19  1  0  0  0  0
 19 20  1  0  0  0  0
 19 21  1  0  0  0  0
 19 22  1  0  0  0  0
  1 23  1  0  0  0  0
 23 24  1  0  0  0  0
 23 25  1  0  0  0  0
 23 26  1  0  0  0  0
M  END
> <VConfSearch Rank>
657

> <Conf_Id>
82

> <Delta U+W>
1.026

> <U+W>
22.868

> <U>
72.455

> <W>
-49.586

> <W(PB)>
-51.821

> <W(SA)>
2.234

> <Valence>
2.908

> <Coulomb>
69.435

> <VdW>
0.112

> <VdW6>
-7.765

> <VdW12>
7.877

> <Bond>
0.233

> <Angle>
1.170

> <Pdih>
1.506

> <Idih>
0.000

> <Tether>
0.000

$$$$
VeraChem MOL file


 26 25  0  0  0  0  0  0  0  0999 V2000     
   21.7605   18.7481   25.3261 N   0  3  0  0  0  0  0  0  0  0  0  0
   21.1792   19.4457   25.8160 H   0  0  0  0  0  0  0  0  0  0  0  0
   22.6906   19.1844   25.2299 H   0  0  0  0  0  0  0  0  0  0  0  0
   21.1792   18.4498   23.9588 C   0  0  0  0  0  0  0  0  0  0  0  0
   20.1973   17.9938   24.1064 H   0  0  0  0  0  0  0  0  0  0  0  0
   21.8286   17.7194   23.4698 H   0  0  0  0  0  0  0  0  0  0  0  0
   21.0427   19.6997   23.0687 C   0  0  0  0  0  0  0  0  0  0  0  0
   20.4029   20.4399   23.5657 H   0  0  0  0  0  0  0  0  0  0  0  0
   22.0284   20.1702   22.9560 H   0  0  0  0  0  0  0  0  0  0  0  0
   20.4807   19.3730   21.6628 C   0  0  0  0  0  0  0  0  0  0  0  0
   21.1978   18.7292   21.1349 H   0  0  0  0  0  0  0  0  0  0  0  0
   20.4257   20.2985   21.0741 H   0  0  0  0  0  0  0  0  0  0  0  0
   19.0942   18.6739   21.6616 C   0  0  0  0  0  0  0  0  0  0  0  0
   18.7865   18.5077   20.6200 H   0  0  0  0  0  0  0  0  0  0  0  0
   19.1899   17.6728   22.1034 H   0  0  0  0  0  0  0  0  0  0  0  0
   17.9677   19.4418   22.3991 C   0  0  0  0  0  0  0  0  0  0  0  0
   18.2036   19.5281   23.4682 H   0  0  0  0  0  0  0  0  0  0  0  0
   17.0444   18.8484   22.3423 H   0  0  0  0  0  0  0  0  0  0  0  0
   17.6945   20.8443   21.8099 C   0  0  0  0  0  0  0  0  0  0  0  0
   18.5554   21.5112   21.9421 H   0  0  0  0  0  0  0  0  0  0  0  0
   16.8355   21.3107   22.3093 H   0  0  0  0  0  0  0  0  0  0  0  0
   17.4675   20.7843   20.7377 H   0  0  0  0  0  0  0  0  0  0  0  0
   21.8541   17.4649   26.1399 C   0  0  0  0  0  0  0  0  0  0  0  0
   22.5000   16.7552   25.6183 H   0  0  0  0  0  0  0  0  0  0  0  0
   22.2744   17.6934   27.1218 H   0  0  0  0  0  0  0  0  0  0  0  0
   20.8548   17.0397   26.2563 H   0  0  0  0  0  0  0  0  0  0  0  0
  1  2  1  0  0  0  0
  1  3  1  0  0  0  0
  1  4  1  0  0  0  0
  4  5  1  0  0  0  0
  4  6  1  0  0  0  0
  4  7  1  0  0  0  0
  7  8  1  0  0  0  0
  7  9  1  0  0  0  0
  7 10  1  0  0  0  0
 10 11  1  0  0  0  0
 10 12  1  0  0  0  0
 10 13  1  0  0  0  0
 13 14  1  0  0  0  0
 13 15  1  0  0  0  0
 13 16  1  0  0  0  0
 16 17  1  0  0  0  0
 16 18  1  0  0  0  0
 16 19  1  0  0  0  0
 19 20  1  0  0  0  0
 19 21  1  0  0  0  0
 19 22  1  0  0  0  0
  1 23  1  0  0  0  0
 23 24  1  0  0  0  0
 23 25  1  0  0  0  0
 23 26  1  0  0  0  0
M  END
> <VConfSearch Rank>
658

> <Conf_Id>
71

> <Delta U+W>
1.096

> <U+W>
22.938

> <U>
72.455

> <W>
-49.517

> <W(PB)>
-51.795

> <W(SA)>
2.278

> <Valence>
2.908

> <Coulomb>
69.435

> <VdW>
0.112

> <VdW6>
-7.766

> <VdW12>
7.877

> <Bond>
0.233

> <Angle>
1.170

> <Pdih>
1.506

> <Idih>
0.000

> <Tether>
0.000

$$$$
VeraChem MOL file


 26 25  0  0  0  0  0  0  0  0999 V2000     
   21.1687   16.9584   23.1164 N   0  3  0  0  0  0  0  0  0  0  0  0
   20.1796   17.0975   22.8612 H   0  0  0  0  0  0  0  0  0  0  0  0
   21.1875   16.0784   23.6558 H   0  0  0  0  0  0  0  0  0  0  0  0
   21.6448   18.1052   23.9939 C   0  0  0  0  0  0  0  0  0  0  0  0
   22.6984   17.9303   24.2256 H   0  0  0  0  0  0  0  0  0  0  0  0
   21.0842   18.0543   24.9303 H   0  0  0  0  0  0  0  0  0  0  0  0
   21.4774   19.5141   23.3805 C   0  0  0  0  0  0  0  0  0  0  0  0
   21.8451   20.2560   24.1017 H   0  0  0  0  0  0  0  0  0  0  0  0
   22.1243   19.6055   22.4984 H   0  0  0  0  0  0  0  0  0  0  0  0
   20.0210   19.8655   22.9846 C   0  0  0  0  0  0  0  0  0  0  0  0
   19.6703   19.1767   22.2045 H   0  0  0  0  0  0  0  0  0  0  0  0
   20.0240   20.8647   22.5304 H   0  0  0  0  0  0  0  0  0  0  0  0
   19.0401   19.8447   24.1846 C   0  0  0  0  0  0  0  0  0  0  0  0
   19.0583   18.8546   24.6587 H   0  0  0  0  0  0  0  0  0  0  0  0
   19.3758   20.5589   24.9491 H   0  0  0  0  0  0  0  0  0  0  0  0
   17.5771   20.1612   23.7898 C   0  0  0  0  0  0  0  0  0  0  0  0
   16.9356   20.0138   24.6700 H   0  0  0  0  0  0  0  0  0  0  0  0
   17.2312   19.4417   23.0346 H   0  0  0  0  0  0  0  0  0  0  0  0
   17.3770   21.6017   23.2659 C   0  0  0  0  0  0  0  0  0  0  0  0
   17.8987   21.7619   22.3144 H   0  0  0  0  0  0  0  0  0  0  0  0
   17.7456   22.3402   23.9896 H   0  0  0  0  0  0  0  0  0  0  0  0
   16.3117   21.8033   23.0946 H   0  0  0  0  0  0  0  0  0  0  0  0
   22.0348   16.8219   21.8696 C   0  0  0  0  0  0  0  0  0  0  0  0
   21.6827   15.9719   21.2810 H   0  0  0  0  0  0  0  0  0  0  0  0
   21.9601   17.7357   21.2766 H   0  0  0  0  0  0  0  0  0  0  0  0
   23.0721   16.6583   22.1698 H   0  0  0  0  0  0  0  0  0  0  0  0
  1  2  1  0  0  0  0
  1  3  1  0  0  0  0
  1  4  1  0  0  0  0
  4  5  1  0  0  0  0
  4  6  1  0  0  0  0
  4  7  1  0  0  0  0
  7  8  1  0  0  0  0
  7  9  1  0  0  0  0
  7 10  1  0  0  0  0
 10 11  1  0  0  0  0
 10 12  1  0  0  0  0
 10 13  1  0  0  0  0
 13 14  1  0  0  0  0
 13 15  1  0  0  0  0
 13 16  1  0  0  0  0
 16 17  1  0  0  0  0
 16 18  1  0  0  0  0
 16 19  1  0  0  0  0
 19 20  1  0  0  0  0
 19 21  1  0  0  0  0
 19 22  1  0  0  0  0
  1 23  1  0  0  0  0
 23 24  1  0  0  0  0
 23 25  1  0  0  0  0
 23 26  1  0  0  0  0
M  END
> <VConfSearch Rank>
659

> <Conf_Id>
84

> <Delta U+W>
1.456

> <U+W>
23.298

> <U>
73.042

> <W>
-49.744

> <W(PB)>
-51.966

> <W(SA)>
2.222

> <Valence>
2.938

> <Coulomb>
69.625

> <VdW>
0.478

> <VdW6>
-8.182

> <VdW12>
8.660

> <Bond>
0.253

> <Angle>
1.038

> <Pdih>
1.647

> <Idih>
0.000

> <Tether>
0.000

$$$$
VeraChem MOL file


 26 25  0  0  0  0  0  0  0  0999 V2000     
   17.7787   20.0201   23.4360 N   0  3  0  0  0  0  0  0  0  0  0  0
   17.9944   19.0194   23.3128 H   0  0  0  0  0  0  0  0  0  0  0  0
   17.2060   20.2830   22.6190 H   0  0  0  0  0  0  0  0  0  0  0  0
   19.0617   20.8277   23.4551 C   0  0  0  0  0  0  0  0  0  0  0  0
   19.6370   20.5251   24.3332 H   0  0  0  0  0  0  0  0  0  0  0  0
   18.7892   21.8795   23.5741 H   0  0  0  0  0  0  0  0  0  0  0  0
   19.9222   20.6622   22.1854 C   0  0  0  0  0  0  0  0  0  0  0  0
   19.3533   21.0184   21.3163 H   0  0  0  0  0  0  0  0  0  0  0  0
   20.7984   21.3190   22.2668 H   0  0  0  0  0  0  0  0  0  0  0  0
   20.3956   19.2093   21.9280 C   0  0  0  0  0  0  0  0  0  0  0  0
   20.9864   19.1939   21.0016 H   0  0  0  0  0  0  0  0  0  0  0  0
   19.5289   18.5598   21.7462 H   0  0  0  0  0  0  0  0  0  0  0  0
   21.2491   18.6322   23.0831 C   0  0  0  0  0  0  0  0  0  0  0  0
   22.1017   19.2977   23.2772 H   0  0  0  0  0  0  0  0  0  0  0  0
   20.6571   18.5963   24.0074 H   0  0  0  0  0  0  0  0  0  0  0  0
   21.7680   17.2133   22.7601 C   0  0  0  0  0  0  0  0  0  0  0  0
   22.3715   17.2384   21.8418 H   0  0  0  0  0  0  0  0  0  0  0  0
   20.9194   16.5433   22.5630 H   0  0  0  0  0  0  0  0  0  0  0  0
   22.6167   16.6380   23.9141 C   0  0  0  0  0  0  0  0  0  0  0  0
   23.4928   17.2691   24.1126 H   0  0  0  0  0  0  0  0  0  0  0  0
   22.9765   15.6310   23.6660 H   0  0  0  0  0  0  0  0  0  0  0  0
   22.0297   16.5673   24.8391 H   0  0  0  0  0  0  0  0  0  0  0  0
   17.0048   20.2450   24.7274 C   0  0  0  0  0  0  0  0  0  0  0  0
   16.7623   21.3059   24.8204 H   0  0  0  0  0  0  0  0  0  0  0  0
   16.0846   19.6572   24.7007 H   0  0  0  0  0  0  0  0  0  0  0  0
   17.6192   19.9302   25.5738 H   0  0  0  0  0  0  0  0  0  0  0  0
  1  2  1  0  0  0  0
  1  3  1  0  0  0  0
  1  4  1  0  0  0  0
  4  5  1  0  0  0  0
  4  6  1  0  0  0  0
  4  7  1  0  0  0  0
  7  8  1  0  0  0  0
  7  9  1  0  0  0  0
  7 10  1  0  0  0  0
 10 11  1  0  0  0  0
 10 12  1  0  0  0  0
 10 13  1  0  0  0  0
 13 14  1  0  0  0  0
 13 15  1  0  0  0  0
 13 16  1  0  0  0  0
 16 17  1  0  0  0  0
 16 18  1  0  0  0  0
 16 19  1  0  0  0  0
 19 20  1  0  0  0  0
 19 21  1  0  0  0  0
 19 22  1  0  0  0  0
  1 23  1  0  0  0  0
 23 24  1  0  0  0  0
 23 25  1  0  0  0  0
 23 26  1  0  0  0  0
M  END
> <VConfSearch Rank>
660

> <Conf_Id>
73

> <Delta U+W>
0.884

> <U+W>
22.726

> <U>
71.905

> <W>
-49.179

> <W(PB)>
-51.494

> <W(SA)>
2.315

> <Valence>
2.125

> <Coulomb>
69.686

> <VdW>
0.093

> <VdW6>
-6.766

> <VdW12>
6.859

> <Bond>
0.169

> <Angle>
0.621

> <Pdih>
1.336

> <Idih>
0.000

> <Tether>
0.000

$$$$
VeraChem MOL file


 26 25  0  0  0  0  0  0  0  0999 V2000     
   17.2489   18.0742   22.0208 N   0  3  0  0  0  0  0  0  0  0  0  0
   17.4433   18.4030   21.0622 H   0  0  0  0  0  0  0  0  0  0  0  0
   16.6699   18.8117   22.4517 H   0  0  0  0  0  0  0  0  0  0  0  0
   18.5442   17.9098   22.7901 C   0  0  0  0  0  0  0  0  0  0  0  0
   19.1294   17.1287   22.2984 H   0  0  0  0  0  0  0  0  0  0  0  0
   18.2945   17.5697   23.7984 H   0  0  0  0  0  0  0  0  0  0  0  0
   19.3730   19.2047   22.8707 C   0  0  0  0  0  0  0  0  0  0  0  0
   19.6075   19.5517   21.8555 H   0  0  0  0  0  0  0  0  0  0  0  0
   18.7754   19.9913   23.3505 H   0  0  0  0  0  0  0  0  0  0  0  0
   20.6819   18.9897   23.6625 C   0  0  0  0  0  0  0  0  0  0  0  0
   21.2744   18.1983   23.1824 H   0  0  0  0  0  0  0  0  0  0  0  0
   20.4432   18.6371   24.6757 H   0  0  0  0  0  0  0  0  0  0  0  0
   21.5226   20.2839   23.7501 C   0  0  0  0  0  0  0  0  0  0  0  0
   21.7615   20.6364   22.7372 H   0  0  0  0  0  0  0  0  0  0  0  0
   20.9304   21.0752   24.2302 H   0  0  0  0  0  0  0  0  0  0  0  0
   22.8317   20.0685   24.5421 C   0  0  0  0  0  0  0  0  0  0  0  0
   23.4290   19.2792   24.0644 H   0  0  0  0  0  0  0  0  0  0  0  0
   22.5980   19.7181   25.5573 H   0  0  0  0  0  0  0  0  0  0  0  0
   23.6685   21.3628   24.6275 C   0  0  0  0  0  0  0  0  0  0  0  0
   24.5933   21.1900   25.1931 H   0  0  0  0  0  0  0  0  0  0  0  0
   23.1098   22.1619   25.1320 H   0  0  0  0  0  0  0  0  0  0  0  0
   23.9473   21.7196   23.6274 H   0  0  0  0  0  0  0  0  0  0  0  0
   16.4937   16.7526   21.9892 C   0  0  0  0  0  0  0  0  0  0  0  0
   16.2702   16.4421   23.0122 H   0  0  0  0  0  0  0  0  0  0  0  0
   15.5633   16.8850   21.4323 H   0  0  0  0  0  0  0  0  0  0  0  0
   17.1122   15.9971   21.4997 H   0  0  0  0  0  0  0  0  0  0  0  0
  1  2  1  0  0  0  0
  1  3  1  0  0  0  0
  1  4  1  0  0  0  0
  4  5  1  0  0  0  0
  4  6  1  0  0  0  0
  4  7  1  0  0  0  0
  7  8  1  0  0  0  0
  7  9  1  0  0  0  0
  7 10  1  0  0  0  0
 10 11  1  0  0  0  0
 10 12  1  0  0  0  0
 10 13  1  0  0  0  0
 13 14  1  0  0  0  0
 13 15  1  0  0  0  0
 13 16  1  0  0  0  0
 16 17  1  0  0  0  0
 16 18  1  0  0  0  0
 16 19  1  0  0  0  0
 19 20  1  0  0  0  0
 19 21  1  0  0  0  0
 19 22  1  0  0  0  0
  1 23  1  0  0  0  0
 23 24  1  0  0  0  0
 23 25  1  0  0  0  0
 23 26  1  0  0  0  0
M  END
> <VConfSearch Rank>
661

> <Conf_Id>
11

> <Delta U+W>
0.000

> <U+W>
21.842

> <U>
70.357

> <W>
-48.515

> <W(PB)>
-50.856

> <W(SA)>
2.341

> <Valence>
1.714

> <Coulomb>
68.480

> <VdW>
0.163

> <VdW6>
-5.268

> <VdW12>
5.431

> <Bond>
0.126

> <Angle>
0.350

> <Pdih>
1.238

> <Idih>
0.000

> <Tether>
0.000

$$$$
VeraChem MOL file


 26 25  0  0  0  0  0  0  0  0999 V2000     
   20.6712   22.3452   22.9192 N   0  3  0  0  0  0  0  0  0  0  0  0
   20.1599   23.2420   22.9353 H   0  0  0  0  0  0  0  0  0  0  0  0
   21.0172   22.2537   21.9515 H   0  0  0  0  0  0  0  0  0  0  0  0
   19.7157   21.2095   23.2451 C   0  0  0  0  0  0  0  0  0  0  0  0
   18.8335   21.3359   22.6123 H   0  0  0  0  0  0  0  0  0  0  0  0
   19.4042   21.3201   24.2868 H   0  0  0  0  0  0  0  0  0  0  0  0
   20.2966   19.7989   23.0184 C   0  0  0  0  0  0  0  0  0  0  0  0
   20.6522   19.7138   21.9830 H   0  0  0  0  0  0  0  0  0  0  0  0
   21.1658   19.6460   23.6711 H   0  0  0  0  0  0  0  0  0  0  0  0
   19.2434   18.7040   23.2982 C   0  0  0  0  0  0  0  0  0  0  0  0
   18.3725   18.8583   22.6460 H   0  0  0  0  0  0  0  0  0  0  0  0
   18.8855   18.7967   24.3332 H   0  0  0  0  0  0  0  0  0  0  0  0
   19.8127   17.2846   23.0732 C   0  0  0  0  0  0  0  0  0  0  0  0
   20.1708   17.1919   22.0385 H   0  0  0  0  0  0  0  0  0  0  0  0
   20.6834   17.1300   23.7255 H   0  0  0  0  0  0  0  0  0  0  0  0
   18.7591   16.1897   23.3532 C   0  0  0  0  0  0  0  0  0  0  0  0
   17.8868   16.3385   22.7012 H   0  0  0  0  0  0  0  0  0  0  0  0
   18.3993   16.2767   24.3881 H   0  0  0  0  0  0  0  0  0  0  0  0
   19.3310   14.7738   23.1276 C   0  0  0  0  0  0  0  0  0  0  0  0
   18.5687   14.0107   23.3313 H   0  0  0  0  0  0  0  0  0  0  0  0
   20.1846   14.5824   23.7909 H   0  0  0  0  0  0  0  0  0  0  0  0
   19.6681   14.6446   22.0908 H   0  0  0  0  0  0  0  0  0  0  0  0
   21.8308   22.3930   23.9078 C   0  0  0  0  0  0  0  0  0  0  0  0
   22.4046   21.4668   23.8376 H   0  0  0  0  0  0  0  0  0  0  0  0
   22.4733   23.2419   23.6638 H   0  0  0  0  0  0  0  0  0  0  0  0
   21.4354   22.5087   24.9193 H   0  0  0  0  0  0  0  0  0  0  0  0
  1  2  1  0  0  0  0
  1  3  1  0  0  0  0
  1  4  1  0  0  0  0
  4  5  1  0  0  0  0
  4  6  1  0  0  0  0
  4  7  1  0  0  0  0
  7  8  1  0  0  0  0
  7  9  1  0  0  0  0
  7 10  1  0  0  0  0
 10 11  1  0  0  0  0
 10 12  1  0  0  0  0
 10 13  1  0  0  0  0
 13 14  1  0  0  0  0
 13 15  1  0  0  0  0
 13 16  1  0  0  0  0
 16 17  1  0  0  0  0
 16 18  1  0  0  0  0
 16 19  1  0  0  0  0
 19 20  1  0  0  0  0
 19 21  1  0  0  0  0
 19 22  1  0  0  0  0
  1 23  1  0  0  0  0
 23 24  1  0  0  0  0
 23 25  1  0  0  0  0
 23 26  1  0  0  0  0
M  END
> <VConfSearch Rank>
662

> <Conf_Id>
102

> <Delta U+W>
0.121

> <U+W>
21.963

> <U>
70.745

> <W>
-48.782

> <W(PB)>
-51.111

> <W(SA)>
2.329

> <Valence>
1.993

> <Coulomb>
68.323

> <VdW>
0.429

> <VdW6>
-5.973

> <VdW12>
6.402

> <Bond>
0.161

> <Angle>
0.472

> <Pdih>
1.360

> <Idih>
0.000

> <Tether>
0.000

$$$$
VeraChem MOL file


 26 25  0  0  0  0  0  0  0  0999 V2000     
   17.7112   20.4194   25.2288 N   0  3  0  0  0  0  0  0  0  0  0  0
   17.6434   21.2888   24.6774 H   0  0  0  0  0  0  0  0  0  0  0  0
   17.5953   20.7171   26.2106 H   0  0  0  0  0  0  0  0  0  0  0  0
   19.0815   19.7879   25.0476 C   0  0  0  0  0  0  0  0  0  0  0  0
   19.0989   18.8532   25.6137 H   0  0  0  0  0  0  0  0  0  0  0  0
   19.8132   20.4672   25.4923 H   0  0  0  0  0  0  0  0  0  0  0  0
   19.4740   19.5199   23.5804 C   0  0  0  0  0  0  0  0  0  0  0  0
   18.7649   18.8138   23.1293 H   0  0  0  0  0  0  0  0  0  0  0  0
   19.4056   20.4549   23.0086 H   0  0  0  0  0  0  0  0  0  0  0  0
   20.9059   18.9496   23.4753 C   0  0  0  0  0  0  0  0  0  0  0  0
   20.9718   18.0177   24.0540 H   0  0  0  0  0  0  0  0  0  0  0  0
   21.6156   19.6557   23.9286 H   0  0  0  0  0  0  0  0  0  0  0  0
   21.3126   18.6775   22.0090 C   0  0  0  0  0  0  0  0  0  0  0  0
   20.6032   17.9711   21.5558 H   0  0  0  0  0  0  0  0  0  0  0  0
   21.2463   19.6092   21.4302 H   0  0  0  0  0  0  0  0  0  0  0  0
   22.7447   18.1072   21.9043 C   0  0  0  0  0  0  0  0  0  0  0  0
   22.8155   17.1736   22.4799 H   0  0  0  0  0  0  0  0  0  0  0  0
   23.4586   18.8115   22.3541 H   0  0  0  0  0  0  0  0  0  0  0  0
   23.1472   17.8365   20.4388 C   0  0  0  0  0  0  0  0  0  0  0  0
   22.4712   17.1085   19.9716 H   0  0  0  0  0  0  0  0  0  0  0  0
   24.1664   17.4323   20.3850 H   0  0  0  0  0  0  0  0  0  0  0  0
   23.1192   18.7592   19.8446 H   0  0  0  0  0  0  0  0  0  0  0  0
   16.5999   19.4475   24.8483 C   0  0  0  0  0  0  0  0  0  0  0  0
   16.6861   18.5467   25.4598 H   0  0  0  0  0  0  0  0  0  0  0  0
   15.6330   19.9232   25.0268 H   0  0  0  0  0  0  0  0  0  0  0  0
   16.6916   19.1886   23.7916 H   0  0  0  0  0  0  0  0  0  0  0  0
  1  2  1  0  0  0  0
  1  3  1  0  0  0  0
  1  4  1  0  0  0  0
  4  5  1  0  0  0  0
  4  6  1  0  0  0  0
  4  7  1  0  0  0  0
  7  8  1  0  0  0  0
  7  9  1  0  0  0  0
  7 10  1  0  0  0  0
 10 11  1  0  0  0  0
 10 12  1  0  0  0  0
 10 13  1  0  0  0  0
 13 14  1  0  0  0  0
 13 15  1  0  0  0  0
 13 16  1  0  0  0  0
 16 17  1  0  0  0  0
 16 18  1  0  0  0  0
 16 19  1  0  0  0  0
 19 20  1  0  0  0  0
 19 21  1  0  0  0  0
 19 22  1  0  0  0  0
  1 23  1  0  0  0  0
 23 24  1  0  0  0  0
 23 25  1  0  0  0  0
 23 26  1  0  0  0  0
M  END
> <VConfSearch Rank>
663

> <Conf_Id>
37

> <Delta U+W>
0.125

> <U+W>
21.967

> <U>
70.745

> <W>
-48.778

> <W(PB)>
-51.115

> <W(SA)>
2.337

> <Valence>
1.993

> <Coulomb>
68.323

> <VdW>
0.429

> <VdW6>
-5.973

> <VdW12>
6.403

> <Bond>
0.161

> <Angle>
0.472

> <Pdih>
1.360

> <Idih>
0.000

> <Tether>
0.000

$$$$
VeraChem MOL file


 26 25  0  0  0  0  0  0  0  0999 V2000     
   20.3029   22.0627   22.7006 N   0  3  0  0  0  0  0  0  0  0  0  0
   20.7002   22.5591   23.5133 H   0  0  0  0  0  0  0  0  0  0  0  0
   19.2946   22.2816   22.7114 H   0  0  0  0  0  0  0  0  0  0  0  0
   20.5154   20.5692   22.8449 C   0  0  0  0  0  0  0  0  0  0  0  0
   21.5921   20.3817   22.8397 H   0  0  0  0  0  0  0  0  0  0  0  0
   20.0767   20.0851   21.9693 H   0  0  0  0  0  0  0  0  0  0  0  0
   19.8944   19.9876   24.1297 C   0  0  0  0  0  0  0  0  0  0  0  0
   20.3097   20.5158   24.9983 H   0  0  0  0  0  0  0  0  0  0  0  0
   18.8125   20.1753   24.1354 H   0  0  0  0  0  0  0  0  0  0  0  0
   20.1600   18.4719   24.2915 C   0  0  0  0  0  0  0  0  0  0  0  0
   19.7869   18.1613   25.2760 H   0  0  0  0  0  0  0  0  0  0  0  0
   21.2434   18.2884   24.2969 H   0  0  0  0  0  0  0  0  0  0  0  0
   19.4893   17.6155   23.1871 C   0  0  0  0  0  0  0  0  0  0  0  0
   18.4036   17.7839   23.1956 H   0  0  0  0  0  0  0  0  0  0  0  0
   19.8448   17.9431   22.2012 H   0  0  0  0  0  0  0  0  0  0  0  0
   19.7771   16.1003   23.3225 C   0  0  0  0  0  0  0  0  0  0  0  0
   20.8618   15.9245   23.3031 H   0  0  0  0  0  0  0  0  0  0  0  0
   19.3671   15.5845   22.4429 H   0  0  0  0  0  0  0  0  0  0  0  0
   19.1701   15.4681   24.5959 C   0  0  0  0  0  0  0  0  0  0  0  0
   19.6398   15.8613   25.5059 H   0  0  0  0  0  0  0  0  0  0  0  0
   19.3190   14.3806   24.5928 H   0  0  0  0  0  0  0  0  0  0  0  0
   18.0906   15.6582   24.6556 H   0  0  0  0  0  0  0  0  0  0  0  0
   20.9424   22.5545   21.4094 C   0  0  0  0  0  0  0  0  0  0  0  0
   20.4832   22.0399   20.5625 H   0  0  0  0  0  0  0  0  0  0  0  0
   20.7824   23.6311   21.3179 H   0  0  0  0  0  0  0  0  0  0  0  0
   22.0134   22.3417   21.4354 H   0  0  0  0  0  0  0  0  0  0  0  0
  1  2  1  0  0  0  0
  1  3  1  0  0  0  0
  1  4  1  0  0  0  0
  4  5  1  0  0  0  0
  4  6  1  0  0  0  0
  4  7  1  0  0  0  0
  7  8  1  0  0  0  0
  7  9  1  0  0  0  0
  7 10  1  0  0  0  0
 10 11  1  0  0  0  0
 10 12  1  0  0  0  0
 10 13  1  0  0  0  0
 13 14  1  0  0  0  0
 13 15  1  0  0  0  0
 13 16  1  0  0  0  0
 16 17  1  0  0  0  0
 16 18  1  0  0  0  0
 16 19  1  0  0  0  0
 19 20  1  0  0  0  0
 19 21  1  0  0  0  0
 19 22  1  0  0  0  0
  1 23  1  0  0  0  0
 23 24  1  0  0  0  0
 23 25  1  0  0  0  0
 23 26  1  0  0  0  0
M  END
> <VConfSearch Rank>
664

> <Conf_Id>
137

> <Delta U+W>
1.038

> <U+W>
22.880

> <U>
71.810

> <W>
-48.930

> <W(PB)>
-51.257

> <W(SA)>
2.327

> <Valence>
2.568

> <Coulomb>
68.877

> <VdW>
0.364

> <VdW6>
-6.470

> <VdW12>
6.834

> <Bond>
0.191

> <Angle>
0.752

> <Pdih>
1.626

> <Idih>
0.000

> <Tether>
0.000

$$$$
VeraChem MOL file


 26 25  0  0  0  0  0  0  0  0999 V2000     
   22.9758   19.6494   23.6317 N   0  3  0  0  0  0  0  0  0  0  0  0
   23.1576   18.7366   23.1861 H   0  0  0  0  0  0  0  0  0  0  0  0
   22.9900   19.4670   24.6472 H   0  0  0  0  0  0  0  0  0  0  0  0
   21.6169   20.1744   23.2136 C   0  0  0  0  0  0  0  0  0  0  0  0
   21.6413   20.3463   22.1345 H   0  0  0  0  0  0  0  0  0  0  0  0
   21.4609   21.1346   23.7117 H   0  0  0  0  0  0  0  0  0  0  0  0
   20.4616   19.2176   23.5595 C   0  0  0  0  0  0  0  0  0  0  0  0
   20.6390   18.2521   23.0695 H   0  0  0  0  0  0  0  0  0  0  0  0
   20.4511   19.0352   24.6423 H   0  0  0  0  0  0  0  0  0  0  0  0
   19.0981   19.7984   23.1158 C   0  0  0  0  0  0  0  0  0  0  0  0
   19.0906   19.9352   22.0255 H   0  0  0  0  0  0  0  0  0  0  0  0
   18.9781   20.7998   23.5524 H   0  0  0  0  0  0  0  0  0  0  0  0
   17.8868   18.9306   23.5384 C   0  0  0  0  0  0  0  0  0  0  0  0
   17.8841   18.8084   24.6304 H   0  0  0  0  0  0  0  0  0  0  0  0
   16.9653   19.4740   23.2876 H   0  0  0  0  0  0  0  0  0  0  0  0
   17.8517   17.5414   22.8579 C   0  0  0  0  0  0  0  0  0  0  0  0
   18.7264   16.9493   23.1581 H   0  0  0  0  0  0  0  0  0  0  0  0
   17.9068   17.6609   21.7668 H   0  0  0  0  0  0  0  0  0  0  0  0
   16.5706   16.7611   23.2225 C   0  0  0  0  0  0  0  0  0  0  0  0
   16.5020   16.5994   24.3062 H   0  0  0  0  0  0  0  0  0  0  0  0
   16.5633   15.7779   22.7343 H   0  0  0  0  0  0  0  0  0  0  0  0
   15.6721   17.3033   22.9002 H   0  0  0  0  0  0  0  0  0  0  0  0
   24.0572   20.6525   23.2543 C   0  0  0  0  0  0  0  0  0  0  0  0
   23.8623   21.5991   23.7632 H   0  0  0  0  0  0  0  0  0  0  0  0
   25.0303   20.2625   23.5609 H   0  0  0  0  0  0  0  0  0  0  0  0
   24.0447   20.8043   22.1728 H   0  0  0  0  0  0  0  0  0  0  0  0
  1  2  1  0  0  0  0
  1  3  1  0  0  0  0
  1  4  1  0  0  0  0
  4  5  1  0  0  0  0
  4  6  1  0  0  0  0
  4  7  1  0  0  0  0
  7  8  1  0  0  0  0
  7  9  1  0  0  0  0
  7 10  1  0  0  0  0
 10 11  1  0  0  0  0
 10 12  1  0  0  0  0
 10 13  1  0  0  0  0
 13 14  1  0  0  0  0
 13 15  1  0  0  0  0
 13 16  1  0  0  0  0
 16 17  1  0  0  0  0
 16 18  1  0  0  0  0
 16 19  1  0  0  0  0
 19 20  1  0  0  0  0
 19 21  1  0  0  0  0
 19 22  1  0  0  0  0
  1 23  1  0  0  0  0
 23 24  1  0  0  0  0
 23 25  1  0  0  0  0
 23 26  1  0  0  0  0
M  END
> <VConfSearch Rank>
665

> <Conf_Id>
35

> <Delta U+W>
0.670

> <U+W>
22.512

> <U>
71.348

> <W>
-48.837

> <W(PB)>
-51.150

> <W(SA)>
2.313

> <Valence>
2.262

> <Coulomb>
68.807

> <VdW>
0.280

> <VdW6>
-5.915

> <VdW12>
6.195

> <Bond>
0.164

> <Angle>
0.622

> <Pdih>
1.475

> <Idih>
0.000

> <Tether>
0.000

$$$$
VeraChem MOL file


 26 25  0  0  0  0  0  0  0  0999 V2000     
   18.9085   16.3052   23.4163 N   0  3  0  0  0  0  0  0  0  0  0  0
   19.6273   15.9425   24.0617 H   0  0  0  0  0  0  0  0  0  0  0  0
   19.2934   16.1640   22.4693 H   0  0  0  0  0  0  0  0  0  0  0  0
   18.6736   17.7806   23.6709 C   0  0  0  0  0  0  0  0  0  0  0  0
   18.2752   17.8866   24.6831 H   0  0  0  0  0  0  0  0  0  0  0  0
   17.9149   18.1262   22.9643 H   0  0  0  0  0  0  0  0  0  0  0  0
   19.9461   18.6344   23.5231 C   0  0  0  0  0  0  0  0  0  0  0  0
   20.7109   18.2731   24.2234 H   0  0  0  0  0  0  0  0  0  0  0  0
   20.3468   18.5050   22.5099 H   0  0  0  0  0  0  0  0  0  0  0  0
   19.6555   20.1293   23.7949 C   0  0  0  0  0  0  0  0  0  0  0  0
   19.1794   20.2264   24.7806 H   0  0  0  0  0  0  0  0  0  0  0  0
   18.9265   20.5042   23.0630 H   0  0  0  0  0  0  0  0  0  0  0  0
   20.9209   21.0219   23.7709 C   0  0  0  0  0  0  0  0  0  0  0  0
   20.6378   22.0354   24.0873 H   0  0  0  0  0  0  0  0  0  0  0  0
   21.6428   20.6580   24.5152 H   0  0  0  0  0  0  0  0  0  0  0  0
   21.5984   21.1003   22.3820 C   0  0  0  0  0  0  0  0  0  0  0  0
   20.8635   21.4145   21.6277 H   0  0  0  0  0  0  0  0  0  0  0  0
   21.9610   20.1089   22.0799 H   0  0  0  0  0  0  0  0  0  0  0  0
   22.7848   22.0880   22.3822 C   0  0  0  0  0  0  0  0  0  0  0  0
   22.4546   23.1027   22.6401 H   0  0  0  0  0  0  0  0  0  0  0  0
   23.2552   22.1291   21.3912 H   0  0  0  0  0  0  0  0  0  0  0  0
   23.5516   21.7836   23.1065 H   0  0  0  0  0  0  0  0  0  0  0  0
   17.6048   15.5367   23.5827 C   0  0  0  0  0  0  0  0  0  0  0  0
   16.8710   15.9153   22.8677 H   0  0  0  0  0  0  0  0  0  0  0  0
   17.7879   14.4761   23.3968 H   0  0  0  0  0  0  0  0  0  0  0  0
   17.2344   15.6741   24.6010 H   0  0  0  0  0  0  0  0  0  0  0  0
  1  2  1  0  0  0  0
  1  3  1  0  0  0  0
  1  4  1  0  0  0  0
  4  5  1  0  0  0  0
  4  6  1  0  0  0  0
  4  7  1  0  0  0  0
  7  8  1  0  0  0  0
  7  9  1  0  0  0  0
  7 10  1  0  0  0  0
 10 11  1  0  0  0  0
 10 12  1  0  0  0  0
 10 13  1  0  0  0  0
 13 14  1  0  0  0  0
 13 15  1  0  0  0  0
 13 16  1  0  0  0  0
 16 17  1  0  0  0  0
 16 18  1  0  0  0  0
 16 19  1  0  0  0  0
 19 20  1  0  0  0  0
 19 21  1  0  0  0  0
 19 22  1  0  0  0  0
  1 23  1  0  0  0  0
 23 24  1  0  0  0  0
 23 25  1  0  0  0  0
 23 26  1  0  0  0  0
M  END
> <VConfSearch Rank>
666

> <Conf_Id>
36

> <Delta U+W>
0.662

> <U+W>
22.504

> <U>
71.348

> <W>
-48.844

> <W(PB)>
-51.157

> <W(SA)>
2.313

> <Valence>
2.262

> <Coulomb>
68.807

> <VdW>
0.280

> <VdW6>
-5.916

> <VdW12>
6.195

> <Bond>
0.164

> <Angle>
0.622

> <Pdih>
1.475

> <Idih>
0.000

> <Tether>
0.000

$$$$
VeraChem MOL file


 26 25  0  0  0  0  0  0  0  0999 V2000     
   23.1140   19.4492   23.6730 N   0  3  0  0  0  0  0  0  0  0  0  0
   23.0620   20.3147   24.2324 H   0  0  0  0  0  0  0  0  0  0  0  0
   23.6677   19.6952   22.8377 H   0  0  0  0  0  0  0  0  0  0  0  0
   21.7235   19.0048   23.2664 C   0  0  0  0  0  0  0  0  0  0  0  0
   21.1728   18.7602   24.1777 H   0  0  0  0  0  0  0  0  0  0  0  0
   21.8234   18.0951   22.6690 H   0  0  0  0  0  0  0  0  0  0  0  0
   20.9544   20.0708   22.4624 C   0  0  0  0  0  0  0  0  0  0  0  0
   20.8555   20.9855   23.0620 H   0  0  0  0  0  0  0  0  0  0  0  0
   21.5388   20.3399   21.5724 H   0  0  0  0  0  0  0  0  0  0  0  0
   19.5541   19.5878   22.0162 C   0  0  0  0  0  0  0  0  0  0  0  0
   19.6581   18.6883   21.3935 H   0  0  0  0  0  0  0  0  0  0  0  0
   19.1036   20.3583   21.3752 H   0  0  0  0  0  0  0  0  0  0  0  0
   18.6050   19.2946   23.2032 C   0  0  0  0  0  0  0  0  0  0  0  0
   19.0196   18.4907   23.8260 H   0  0  0  0  0  0  0  0  0  0  0  0
   18.5297   20.1855   23.8420 H   0  0  0  0  0  0  0  0  0  0  0  0
   17.1944   18.8862   22.7230 C   0  0  0  0  0  0  0  0  0  0  0  0
   17.2639   17.9956   22.0826 H   0  0  0  0  0  0  0  0  0  0  0  0
   16.7656   19.6877   22.1052 H   0  0  0  0  0  0  0  0  0  0  0  0
   16.2492   18.5924   23.9076 C   0  0  0  0  0  0  0  0  0  0  0  0
   16.6337   17.7703   24.5253 H   0  0  0  0  0  0  0  0  0  0  0  0
   15.2532   18.3048   23.5467 H   0  0  0  0  0  0  0  0  0  0  0  0
   16.1328   19.4761   24.5485 H   0  0  0  0  0  0  0  0  0  0  0  0
   23.8010   18.3435   24.4624 C   0  0  0  0  0  0  0  0  0  0  0  0
   23.8741   17.4494   23.8392 H   0  0  0  0  0  0  0  0  0  0  0  0
   24.8013   18.6762   24.7488 H   0  0  0  0  0  0  0  0  0  0  0  0
   23.2150   18.1239   25.3576 H   0  0  0  0  0  0  0  0  0  0  0  0
  1  2  1  0  0  0  0
  1  3  1  0  0  0  0
  1  4  1  0  0  0  0
  4  5  1  0  0  0  0
  4  6  1  0  0  0  0
  4  7  1  0  0  0  0
  7  8  1  0  0  0  0
  7  9  1  0  0  0  0
  7 10  1  0  0  0  0
 10 11  1  0  0  0  0
 10 12  1  0  0  0  0
 10 13  1  0  0  0  0
 13 14  1  0  0  0  0
 13 15  1  0  0  0  0
 13 16  1  0  0  0  0
 16 17  1  0  0  0  0
 16 18  1  0  0  0  0
 16 19  1  0  0  0  0
 19 20  1  0  0  0  0
 19 21  1  0  0  0  0
 19 22  1  0  0  0  0
  1 23  1  0  0  0  0
 23 24  1  0  0  0  0
 23 25  1  0  0  0  0
 23 26  1  0  0  0  0
M  END
> <VConfSearch Rank>
667

> <Conf_Id>
46

> <Delta U+W>
0.496

> <U+W>
22.338

> <U>
71.138

> <W>
-48.799

> <W(PB)>
-51.136

> <W(SA)>
2.337

> <Valence>
2.016

> <Coulomb>
68.932

> <VdW>
0.190

> <VdW6>
-5.902

> <VdW12>
6.092

> <Bond>
0.149

> <Angle>
0.477

> <Pdih>
1.390

> <Idih>
0.000

> <Tether>
0.000

$$$$
VeraChem MOL file


 26 25  0  0  0  0  0  0  0  0999 V2000     
   18.9673   21.5397   24.7326 N   0  3  0  0  0  0  0  0  0  0  0  0
   19.3125   21.6857   25.6940 H   0  0  0  0  0  0  0  0  0  0  0  0
   17.9886   21.2298   24.8365 H   0  0  0  0  0  0  0  0  0  0  0  0
   19.7848   20.4677   24.0405 C   0  0  0  0  0  0  0  0  0  0  0  0
   20.8130   20.8295   23.9603 H   0  0  0  0  0  0  0  0  0  0  0  0
   19.3835   20.3426   23.0321 H   0  0  0  0  0  0  0  0  0  0  0  0
   19.7674   19.1162   24.7803 C   0  0  0  0  0  0  0  0  0  0  0  0
   20.1314   19.2637   25.8058 H   0  0  0  0  0  0  0  0  0  0  0  0
   18.7341   18.7535   24.8625 H   0  0  0  0  0  0  0  0  0  0  0  0
   20.6410   18.0441   24.0870 C   0  0  0  0  0  0  0  0  0  0  0  0
   20.6545   17.1416   24.7137 H   0  0  0  0  0  0  0  0  0  0  0  0
   21.6798   18.3983   24.0308 H   0  0  0  0  0  0  0  0  0  0  0  0
   20.1384   17.6727   22.6708 C   0  0  0  0  0  0  0  0  0  0  0  0
   19.0893   17.3508   22.7261 H   0  0  0  0  0  0  0  0  0  0  0  0
   20.1663   18.5559   22.0187 H   0  0  0  0  0  0  0  0  0  0  0  0
   20.9879   16.5487   22.0367 C   0  0  0  0  0  0  0  0  0  0  0  0
   20.9603   15.6558   22.6771 H   0  0  0  0  0  0  0  0  0  0  0  0
   22.0389   16.8651   21.9797 H   0  0  0  0  0  0  0  0  0  0  0  0
   20.4868   16.1802   20.6239 C   0  0  0  0  0  0  0  0  0  0  0  0
   19.4477   15.8274   20.6529 H   0  0  0  0  0  0  0  0  0  0  0  0
   21.1018   15.3807   20.1907 H   0  0  0  0  0  0  0  0  0  0  0  0
   20.5354   17.0451   19.9495 H   0  0  0  0  0  0  0  0  0  0  0  0
   19.0354   22.8367   23.9381 C   0  0  0  0  0  0  0  0  0  0  0  0
   18.4429   23.6001   24.4473 H   0  0  0  0  0  0  0  0  0  0  0  0
   20.0758   23.1619   23.8699 H   0  0  0  0  0  0  0  0  0  0  0  0
   18.6345   22.6658   22.9366 H   0  0  0  0  0  0  0  0  0  0  0  0
  1  2  1  0  0  0  0
  1  3  1  0  0  0  0
  1  4  1  0  0  0  0
  4  5  1  0  0  0  0
  4  6  1  0  0  0  0
  4  7  1  0  0  0  0
  7  8  1  0  0  0  0
  7  9  1  0  0  0  0
  7 10  1  0  0  0  0
 10 11  1  0  0  0  0
 10 12  1  0  0  0  0
 10 13  1  0  0  0  0
 13 14  1  0  0  0  0
 13 15  1  0  0  0  0
 13 16  1  0  0  0  0
 16 17  1  0  0  0  0
 16 18  1  0  0  0  0
 16 19  1  0  0  0  0
 19 20  1  0  0  0  0
 19 21  1  0  0  0  0
 19 22  1  0  0  0  0
  1 23  1  0  0  0  0
 23 24  1  0  0  0  0
 23 25  1  0  0  0  0
 23 26  1  0  0  0  0
M  END
> <VConfSearch Rank>
668

> <Conf_Id>
45

> <Delta U+W>
0.471

> <U+W>
22.313

> <U>
71.138

> <W>
-48.825

> <W(PB)>
-51.169

> <W(SA)>
2.344

> <Valence>
2.016

> <Coulomb>
68.932

> <VdW>
0.190

> <VdW6>
-5.902

> <VdW12>
6.092

> <Bond>
0.149

> <Angle>
0.477

> <Pdih>
1.390

> <Idih>
0.000

> <Tether>
0.000

$$$$
VeraChem MOL file


 26 25  0  0  0  0  0  0  0  0999 V2000     
   20.4400   18.6812   25.8269 N   0  3  0  0  0  0  0  0  0  0  0  0
   21.2396   18.2742   25.3188 H   0  0  0  0  0  0  0  0  0  0  0  0
   19.6819   17.9852   25.7530 H   0  0  0  0  0  0  0  0  0  0  0  0
   20.0178   19.9839   25.1752 C   0  0  0  0  0  0  0  0  0  0  0  0
   20.8469   20.6902   25.2651 H   0  0  0  0  0  0  0  0  0  0  0  0
   19.1710   20.3776   25.7432 H   0  0  0  0  0  0  0  0  0  0  0  0
   19.6172   19.8399   23.6938 C   0  0  0  0  0  0  0  0  0  0  0  0
   18.7837   19.1307   23.6149 H   0  0  0  0  0  0  0  0  0  0  0  0
   19.2408   20.8091   23.3405 H   0  0  0  0  0  0  0  0  0  0  0  0
   20.7994   19.3909   22.7987 C   0  0  0  0  0  0  0  0  0  0  0  0
   21.1275   18.3824   23.0839 H   0  0  0  0  0  0  0  0  0  0  0  0
   21.6551   20.0570   22.9774 H   0  0  0  0  0  0  0  0  0  0  0  0
   20.4698   19.4112   21.2857 C   0  0  0  0  0  0  0  0  0  0  0  0
   20.1639   20.4238   20.9885 H   0  0  0  0  0  0  0  0  0  0  0  0
   21.3894   19.1912   20.7259 H   0  0  0  0  0  0  0  0  0  0  0  0
   19.3771   18.3949   20.8768 C   0  0  0  0  0  0  0  0  0  0  0  0
   18.4263   18.6421   21.3673 H   0  0  0  0  0  0  0  0  0  0  0  0
   19.6594   17.3889   21.2173 H   0  0  0  0  0  0  0  0  0  0  0  0
   19.1612   18.3752   19.3484 C   0  0  0  0  0  0  0  0  0  0  0  0
   18.8484   19.3614   18.9812 H   0  0  0  0  0  0  0  0  0  0  0  0
   18.3817   17.6519   19.0762 H   0  0  0  0  0  0  0  0  0  0  0  0
   20.0820   18.0910   18.8226 H   0  0  0  0  0  0  0  0  0  0  0  0
   20.8024   18.9246   27.2853 C   0  0  0  0  0  0  0  0  0  0  0  0
   19.9320   19.3255   27.8094 H   0  0  0  0  0  0  0  0  0  0  0  0
   21.1048   17.9795   27.7418 H   0  0  0  0  0  0  0  0  0  0  0  0
   21.6267   19.6393   27.3360 H   0  0  0  0  0  0  0  0  0  0  0  0
  1  2  1  0  0  0  0
  1  3  1  0  0  0  0
  1  4  1  0  0  0  0
  4  5  1  0  0  0  0
  4  6  1  0  0  0  0
  4  7  1  0  0  0  0
  7  8  1  0  0  0  0
  7  9  1  0  0  0  0
  7 10  1  0  0  0  0
 10 11  1  0  0  0  0
 10 12  1  0  0  0  0
 10 13  1  0  0  0  0
 13 14  1  0  0  0  0
 13 15  1  0  0  0  0
 13 16  1  0  0  0  0
 16 17  1  0  0  0  0
 16 18  1  0  0  0  0
 16 19  1  0  0  0  0
 19 20  1  0  0  0  0
 19 21  1  0  0  0  0
 19 22  1  0  0  0  0
  1 23  1  0  0  0  0
 23 24  1  0  0  0  0
 23 25  1  0  0  0  0
 23 26  1  0  0  0  0
M  END
> <VConfSearch Rank>
669

> <Conf_Id>
143

> <Delta U+W>
0.915

> <U+W>
22.757

> <U>
71.994

> <W>
-49.237

> <W(PB)>
-51.537

> <W(SA)>
2.300

> <Valence>
2.376

> <Coulomb>
69.315

> <VdW>
0.303

> <VdW6>
-6.508

> <VdW12>
6.810

> <Bond>
0.182

> <Angle>
0.660

> <Pdih>
1.534

> <Idih>
0.000

> <Tether>
0.000

$$$$
VeraChem MOL file


 26 25  0  0  0  0  0  0  0  0999 V2000     
   18.7608   16.7611   23.3964 N   0  3  0  0  0  0  0  0  0  0  0  0
   19.7209   16.4471   23.6029 H   0  0  0  0  0  0  0  0  0  0  0  0
   18.6705   16.7171   22.3695 H   0  0  0  0  0  0  0  0  0  0  0  0
   18.5630   18.1861   23.8768 C   0  0  0  0  0  0  0  0  0  0  0  0
   18.6755   18.1952   24.9639 H   0  0  0  0  0  0  0  0  0  0  0  0
   17.5358   18.4730   23.6379 H   0  0  0  0  0  0  0  0  0  0  0  0
   19.5355   19.2022   23.2458 C   0  0  0  0  0  0  0  0  0  0  0  0
   19.4424   19.1698   22.1522 H   0  0  0  0  0  0  0  0  0  0  0  0
   19.2246   20.2047   23.5640 H   0  0  0  0  0  0  0  0  0  0  0  0
   21.0067   18.9626   23.6646 C   0  0  0  0  0  0  0  0  0  0  0  0
   21.2864   17.9246   23.4421 H   0  0  0  0  0  0  0  0  0  0  0  0
   21.0978   19.0764   24.7538 H   0  0  0  0  0  0  0  0  0  0  0  0
   22.0308   19.8923   22.9631 C   0  0  0  0  0  0  0  0  0  0  0  0
   23.0324   19.5984   23.3065 H   0  0  0  0  0  0  0  0  0  0  0  0
   22.0259   19.7102   21.8795 H   0  0  0  0  0  0  0  0  0  0  0  0
   21.8466   21.4044   23.2537 C   0  0  0  0  0  0  0  0  0  0  0  0
   22.8390   21.8737   23.3076 H   0  0  0  0  0  0  0  0  0  0  0  0
   21.3900   21.5511   24.2424 H   0  0  0  0  0  0  0  0  0  0  0  0
   21.0293   22.1434   22.1681 C   0  0  0  0  0  0  0  0  0  0  0  0
   20.0146   21.7426   22.0698 H   0  0  0  0  0  0  0  0  0  0  0  0
   21.5189   22.0655   21.1886 H   0  0  0  0  0  0  0  0  0  0  0  0
   20.9430   23.2101   22.4123 H   0  0  0  0  0  0  0  0  0  0  0  0
   17.7447   15.8439   24.0625 C   0  0  0  0  0  0  0  0  0  0  0  0
   16.7370   16.1764   23.8039 H   0  0  0  0  0  0  0  0  0  0  0  0
   17.8982   14.8220   23.7084 H   0  0  0  0  0  0  0  0  0  0  0  0
   17.8810   15.8834   25.1455 H   0  0  0  0  0  0  0  0  0  0  0  0
  1  2  1  0  0  0  0
  1  3  1  0  0  0  0
  1  4  1  0  0  0  0
  4  5  1  0  0  0  0
  4  6  1  0  0  0  0
  4  7  1  0  0  0  0
  7  8  1  0  0  0  0
  7  9  1  0  0  0  0
  7 10  1  0  0  0  0
 10 11  1  0  0  0  0
 10 12  1  0  0  0  0
 10 13  1  0  0  0  0
 13 14  1  0  0  0  0
 13 15  1  0  0  0  0
 13 16  1  0  0  0  0
 16 17  1  0  0  0  0
 16 18  1  0  0  0  0
 16 19  1  0  0  0  0
 19 20  1  0  0  0  0
 19 21  1  0  0  0  0
 19 22  1  0  0  0  0
  1 23  1  0  0  0  0
 23 24  1  0  0  0  0
 23 25  1  0  0  0  0
 23 26  1  0  0  0  0
M  END
> <VConfSearch Rank>
670

> <Conf_Id>
76

> <Delta U+W>
3.468

> <U+W>
25.310

> <U>
74.594

> <W>
-49.283

> <W(PB)>
-51.537

> <W(SA)>
2.253

> <Valence>
4.886

> <Coulomb>
69.332

> <VdW>
0.376

> <VdW6>
-7.329

> <VdW12>
7.705

> <Bond>
0.232

> <Angle>
1.251

> <Pdih>
3.403

> <Idih>
0.000

> <Tether>
0.000

$$$$
VeraChem MOL file


 26 25  0  0  0  0  0  0  0  0999 V2000     
   17.8834   20.6177   23.8284 N   0  3  0  0  0  0  0  0  0  0  0  0
   17.6812   19.9234   24.5644 H   0  0  0  0  0  0  0  0  0  0  0  0
   17.2725   20.3642   23.0363 H   0  0  0  0  0  0  0  0  0  0  0  0
   19.3388   20.5329   23.4144 C   0  0  0  0  0  0  0  0  0  0  0  0
   19.9498   20.8006   24.2801 H   0  0  0  0  0  0  0  0  0  0  0  0
   19.5082   21.2755   22.6306 H   0  0  0  0  0  0  0  0  0  0  0  0
   19.7467   19.1390   22.9041 C   0  0  0  0  0  0  0  0  0  0  0  0
   19.5499   18.3974   23.6864 H   0  0  0  0  0  0  0  0  0  0  0  0
   19.1180   18.8691   22.0453 H   0  0  0  0  0  0  0  0  0  0  0  0
   21.2361   19.1068   22.4844 C   0  0  0  0  0  0  0  0  0  0  0  0
   21.8759   19.4313   23.3168 H   0  0  0  0  0  0  0  0  0  0  0  0
   21.3810   19.8466   21.6847 H   0  0  0  0  0  0  0  0  0  0  0  0
   21.7027   17.7225   21.9625 C   0  0  0  0  0  0  0  0  0  0  0  0
   20.8654   17.1904   21.4902 H   0  0  0  0  0  0  0  0  0  0  0  0
   22.4361   17.8887   21.1613 H   0  0  0  0  0  0  0  0  0  0  0  0
   22.3748   16.8192   23.0283 C   0  0  0  0  0  0  0  0  0  0  0  0
   23.2731   17.3169   23.4196 H   0  0  0  0  0  0  0  0  0  0  0  0
   22.7266   15.9021   22.5353 H   0  0  0  0  0  0  0  0  0  0  0  0
   21.4538   16.4264   24.2041 C   0  0  0  0  0  0  0  0  0  0  0  0
   20.5154   15.9860   23.8431 H   0  0  0  0  0  0  0  0  0  0  0  0
   21.2157   17.2942   24.8313 H   0  0  0  0  0  0  0  0  0  0  0  0
   21.9470   15.6850   24.8460 H   0  0  0  0  0  0  0  0  0  0  0  0
   17.5656   22.0235   24.3190 C   0  0  0  0  0  0  0  0  0  0  0  0
   18.2002   22.2566   25.1768 H   0  0  0  0  0  0  0  0  0  0  0  0
   17.7553   22.7364   23.5136 H   0  0  0  0  0  0  0  0  0  0  0  0
   16.5149   22.0711   24.6138 H   0  0  0  0  0  0  0  0  0  0  0  0
  1  2  1  0  0  0  0
  1  3  1  0  0  0  0
  1  4  1  0  0  0  0
  4  5  1  0  0  0  0
  4  6  1  0  0  0  0
  4  7  1  0  0  0  0
  7  8  1  0  0  0  0
  7  9  1  0  0  0  0
  7 10  1  0  0  0  0
 10 11  1  0  0  0  0
 10 12  1  0  0  0  0
 10 13  1  0  0  0  0
 13 14  1  0  0  0  0
 13 15  1  0  0  0  0
 13 16  1  0  0  0  0
 16 17  1  0  0  0  0
 16 18  1  0  0  0  0
 16 19  1  0  0  0  0
 19 20  1  0  0  0  0
 19 21  1  0  0  0  0
 19 22  1  0  0  0  0
  1 23  1  0  0  0  0
 23 24  1  0  0  0  0
 23 25  1  0  0  0  0
 23 26  1  0  0  0  0
M  END
> <VConfSearch Rank>
671

> <Conf_Id>
123

> <Delta U+W>
3.101

> <U+W>
24.943

> <U>
74.070

> <W>
-49.127

> <W(PB)>
-51.421

> <W(SA)>
2.295

> <Valence>
4.690

> <Coulomb>
69.115

> <VdW>
0.266

> <VdW6>
-6.809

> <VdW12>
7.075

> <Bond>
0.212

> <Angle>
1.133

> <Pdih>
3.345

> <Idih>
0.000

> <Tether>
0.000

$$$$
VeraChem MOL file


 26 25  0  0  0  0  0  0  0  0999 V2000     
   19.1644   19.1256   20.8641 N   0  3  0  0  0  0  0  0  0  0  0  0
   18.6200   20.0015   20.8319 H   0  0  0  0  0  0  0  0  0  0  0  0
   18.5641   18.4447   21.3531 H   0  0  0  0  0  0  0  0  0  0  0  0
   20.4498   19.3385   21.6403 C   0  0  0  0  0  0  0  0  0  0  0  0
   21.0522   20.0635   21.0871 H   0  0  0  0  0  0  0  0  0  0  0  0
   20.9920   18.3899   21.6615 H   0  0  0  0  0  0  0  0  0  0  0  0
   20.2358   19.8454   23.0802 C   0  0  0  0  0  0  0  0  0  0  0  0
   21.2170   20.0712   23.5126 H   0  0  0  0  0  0  0  0  0  0  0  0
   19.6857   20.7953   23.0543 H   0  0  0  0  0  0  0  0  0  0  0  0
   19.4806   18.8229   23.9674 C   0  0  0  0  0  0  0  0  0  0  0  0
   19.9715   17.8408   23.9220 H   0  0  0  0  0  0  0  0  0  0  0  0
   18.4732   18.6790   23.5547 H   0  0  0  0  0  0  0  0  0  0  0  0
   19.3371   19.2771   25.4437 C   0  0  0  0  0  0  0  0  0  0  0  0
   19.3068   20.3737   25.5046 H   0  0  0  0  0  0  0  0  0  0  0  0
   18.3613   18.9338   25.8143 H   0  0  0  0  0  0  0  0  0  0  0  0
   20.4210   18.7195   26.4018 C   0  0  0  0  0  0  0  0  0  0  0  0
   20.3743   17.6216   26.4117 H   0  0  0  0  0  0  0  0  0  0  0  0
   20.1814   19.0426   27.4246 H   0  0  0  0  0  0  0  0  0  0  0  0
   21.8603   19.1677   26.0658 C   0  0  0  0  0  0  0  0  0  0  0  0
   21.9281   20.2607   25.9913 H   0  0  0  0  0  0  0  0  0  0  0  0
   22.2041   18.7300   25.1206 H   0  0  0  0  0  0  0  0  0  0  0  0
   22.5561   18.8413   26.8495 H   0  0  0  0  0  0  0  0  0  0  0  0
   19.4831   18.6417   19.4563 C   0  0  0  0  0  0  0  0  0  0  0  0
   20.0309   17.6987   19.5161 H   0  0  0  0  0  0  0  0  0  0  0  0
   18.5497   18.4922   18.9090 H   0  0  0  0  0  0  0  0  0  0  0  0
   20.0924   19.3922   18.9480 H   0  0  0  0  0  0  0  0  0  0  0  0
  1  2  1  0  0  0  0
  1  3  1  0  0  0  0
  1  4  1  0  0  0  0
  4  5  1  0  0  0  0
  4  6  1  0  0  0  0
  4  7  1  0  0  0  0
  7  8  1  0  0  0  0
  7  9  1  0  0  0  0
  7 10  1  0  0  0  0
 10 11  1  0  0  0  0
 10 12  1  0  0  0  0
 10 13  1  0  0  0  0
 13 14  1  0  0  0  0
 13 15  1  0  0  0  0
 13 16  1  0  0  0  0
 16 17  1  0  0  0  0
 16 18  1  0  0  0  0
 16 19  1  0  0  0  0
 19 20  1  0  0  0  0
 19 21  1  0  0  0  0
 19 22  1  0  0  0  0
  1 23  1  0  0  0  0
 23 24  1  0  0  0  0
 23 25  1  0  0  0  0
 23 26  1  0  0  0  0
M  END
> <VConfSearch Rank>
672

> <Conf_Id>
111

> <Delta U+W>
3.383

> <U+W>
25.225

> <U>
74.516

> <W>
-49.292

> <W(PB)>
-51.558

> <W(SA)>
2.266

> <Valence>
4.842

> <Coulomb>
69.333

> <VdW>
0.342

> <VdW6>
-7.369

> <VdW12>
7.711

> <Bond>
0.232

> <Angle>
1.153

> <Pdih>
3.457

> <Idih>
0.000

> <Tether>
0.000

$$$$
VeraChem MOL file


 26 25  0  0  0  0  0  0  0  0999 V2000     
   20.9640   20.9882   24.4564 N   0  3  0  0  0  0  0  0  0  0  0  0
   21.4342   20.7566   25.3451 H   0  0  0  0  0  0  0  0  0  0  0  0
   19.9903   20.6672   24.5664 H   0  0  0  0  0  0  0  0  0  0  0  0
   21.6255   20.2506   23.3088 C   0  0  0  0  0  0  0  0  0  0  0  0
   22.6549   20.6101   23.2339 H   0  0  0  0  0  0  0  0  0  0  0  0
   21.1040   20.5229   22.3883 H   0  0  0  0  0  0  0  0  0  0  0  0
   21.6299   18.7164   23.4725 C   0  0  0  0  0  0  0  0  0  0  0  0
   22.1674   18.2739   22.6234 H   0  0  0  0  0  0  0  0  0  0  0  0
   22.2066   18.4535   24.3692 H   0  0  0  0  0  0  0  0  0  0  0  0
   20.2183   18.0838   23.5686 C   0  0  0  0  0  0  0  0  0  0  0  0
   19.7023   18.4534   24.4647 H   0  0  0  0  0  0  0  0  0  0  0  0
   20.3400   17.0023   23.7114 H   0  0  0  0  0  0  0  0  0  0  0  0
   19.3450   18.3460   22.3150 C   0  0  0  0  0  0  0  0  0  0  0  0
   19.2420   19.4277   22.1573 H   0  0  0  0  0  0  0  0  0  0  0  0
   19.8500   17.9506   21.4228 H   0  0  0  0  0  0  0  0  0  0  0  0
   17.9246   17.7386   22.4155 C   0  0  0  0  0  0  0  0  0  0  0  0
   17.3394   18.0671   21.5451 H   0  0  0  0  0  0  0  0  0  0  0  0
   17.4099   18.1397   23.2998 H   0  0  0  0  0  0  0  0  0  0  0  0
   17.9158   16.1936   22.4644 C   0  0  0  0  0  0  0  0  0  0  0  0
   18.3793   15.8155   23.3839 H   0  0  0  0  0  0  0  0  0  0  0  0
   18.4535   15.7680   21.6073 H   0  0  0  0  0  0  0  0  0  0  0  0
   16.8860   15.8146   22.4356 H   0  0  0  0  0  0  0  0  0  0  0  0
   21.0069   22.4884   24.2025 C   0  0  0  0  0  0  0  0  0  0  0  0
   20.5266   23.0067   25.0354 H   0  0  0  0  0  0  0  0  0  0  0  0
   22.0478   22.8088   24.1198 H   0  0  0  0  0  0  0  0  0  0  0  0
   20.4763   22.7109   23.2741 H   0  0  0  0  0  0  0  0  0  0  0  0
  1  2  1  0  0  0  0
  1  3  1  0  0  0  0
  1  4  1  0  0  0  0
  4  5  1  0  0  0  0
  4  6  1  0  0  0  0
  4  7  1  0  0  0  0
  7  8  1  0  0  0  0
  7  9  1  0  0  0  0
  7 10  1  0  0  0  0
 10 11  1  0  0  0  0
 10 12  1  0  0  0  0
 10 13  1  0  0  0  0
 13 14  1  0  0  0  0
 13 15  1  0  0  0  0
 13 16  1  0  0  0  0
 16 17  1  0  0  0  0
 16 18  1  0  0  0  0
 16 19  1  0  0  0  0
 19 20  1  0  0  0  0
 19 21  1  0  0  0  0
 19 22  1  0  0  0  0
  1 23  1  0  0  0  0
 23 24  1  0  0  0  0
 23 25  1  0  0  0  0
 23 26  1  0  0  0  0
M  END
> <VConfSearch Rank>
673

> <Conf_Id>
126

> <Delta U+W>
1.519

> <U+W>
23.361

> <U>
72.579

> <W>
-49.218

> <W(PB)>
-51.496

> <W(SA)>
2.279

> <Valence>
2.678

> <Coulomb>
69.622

> <VdW>
0.279

> <VdW6>
-7.328

> <VdW12>
7.608

> <Bond>
0.212

> <Angle>
0.911

> <Pdih>
1.555

> <Idih>
0.000

> <Tether>
0.000

$$$$
VeraChem MOL file


 26 25  0  0  0  0  0  0  0  0999 V2000     
   18.1307   20.1381   24.2757 N   0  3  0  0  0  0  0  0  0  0  0  0
   18.1942   19.8826   23.2788 H   0  0  0  0  0  0  0  0  0  0  0  0
   18.1406   21.1696   24.2987 H   0  0  0  0  0  0  0  0  0  0  0  0
   19.3267   19.5884   25.0281 C   0  0  0  0  0  0  0  0  0  0  0  0
   19.2796   18.4978   24.9845 H   0  0  0  0  0  0  0  0  0  0  0  0
   19.2271   19.8901   26.0739 H   0  0  0  0  0  0  0  0  0  0  0  0
   20.6852   20.0749   24.4822 C   0  0  0  0  0  0  0  0  0  0  0  0
   20.7427   21.1666   24.5858 H   0  0  0  0  0  0  0  0  0  0  0  0
   21.4848   19.6660   25.1141 H   0  0  0  0  0  0  0  0  0  0  0  0
   20.9525   19.6865   23.0058 C   0  0  0  0  0  0  0  0  0  0  0  0
   21.9248   20.1051   22.7154 H   0  0  0  0  0  0  0  0  0  0  0  0
   20.2087   20.1619   22.3528 H   0  0  0  0  0  0  0  0  0  0  0  0
   20.9560   18.1546   22.7685 C   0  0  0  0  0  0  0  0  0  0  0  0
   21.7202   17.6836   23.4020 H   0  0  0  0  0  0  0  0  0  0  0  0
   19.9924   17.7311   23.0808 H   0  0  0  0  0  0  0  0  0  0  0  0
   21.1965   17.7606   21.2907 C   0  0  0  0  0  0  0  0  0  0  0  0
   20.4276   18.2191   20.6533 H   0  0  0  0  0  0  0  0  0  0  0  0
   21.0686   16.6735   21.1915 H   0  0  0  0  0  0  0  0  0  0  0  0
   22.6006   18.1443   20.7702 C   0  0  0  0  0  0  0  0  0  0  0  0
   23.3876   17.7250   21.4103 H   0  0  0  0  0  0  0  0  0  0  0  0
   22.7333   19.2324   20.7292 H   0  0  0  0  0  0  0  0  0  0  0  0
   22.7526   17.7562   19.7547 H   0  0  0  0  0  0  0  0  0  0  0  0
   16.8430   19.6009   24.8843 C   0  0  0  0  0  0  0  0  0  0  0  0
   16.8427   18.5106   24.8195 H   0  0  0  0  0  0  0  0  0  0  0  0
   16.7844   19.9095   25.9304 H   0  0  0  0  0  0  0  0  0  0  0  0
   15.9907   20.0037   24.3327 H   0  0  0  0  0  0  0  0  0  0  0  0
  1  2  1  0  0  0  0
  1  3  1  0  0  0  0
  1  4  1  0  0  0  0
  4  5  1  0  0  0  0
  4  6  1  0  0  0  0
  4  7  1  0  0  0  0
  7  8  1  0  0  0  0
  7  9  1  0  0  0  0
  7 10  1  0  0  0  0
 10 11  1  0  0  0  0
 10 12  1  0  0  0  0
 10 13  1  0  0  0  0
 13 14  1  0  0  0  0
 13 15  1  0  0  0  0
 13 16  1  0  0  0  0
 16 17  1  0  0  0  0
 16 18  1  0  0  0  0
 16 19  1  0  0  0  0
 19 20  1  0  0  0  0
 19 21  1  0  0  0  0
 19 22  1  0  0  0  0
  1 23  1  0  0  0  0
 23 24  1  0  0  0  0
 23 25  1  0  0  0  0
 23 26  1  0  0  0  0
M  END
> <VConfSearch Rank>
674

> <Conf_Id>
134

> <Delta U+W>
1.464

> <U+W>
23.306

> <U>
72.579

> <W>
-49.273

> <W(PB)>
-51.540

> <W(SA)>
2.267

> <Valence>
2.677

> <Coulomb>
69.622

> <VdW>
0.280

> <VdW6>
-7.328

> <VdW12>
7.608

> <Bond>
0.212

> <Angle>
0.911

> <Pdih>
1.555

> <Idih>
0.000

> <Tether>
0.000

$$$$
VeraChem MOL file


 26 25  0  0  0  0  0  0  0  0999 V2000     
   22.1729   19.4399   25.1910 N   0  3  0  0  0  0  0  0  0  0  0  0
   22.8088   19.3723   24.3812 H   0  0  0  0  0  0  0  0  0  0  0  0
   22.1980   18.5103   25.6383 H   0  0  0  0  0  0  0  0  0  0  0  0
   20.7660   19.7586   24.7262 C   0  0  0  0  0  0  0  0  0  0  0  0
   20.7843   20.7437   24.2530 H   0  0  0  0  0  0  0  0  0  0  0  0
   20.1254   19.8129   25.6100 H   0  0  0  0  0  0  0  0  0  0  0  0
   20.2008   18.7208   23.7397 C   0  0  0  0  0  0  0  0  0  0  0  0
   20.8616   18.6618   22.8656 H   0  0  0  0  0  0  0  0  0  0  0  0
   20.1989   17.7300   24.2131 H   0  0  0  0  0  0  0  0  0  0  0  0
   18.7654   19.0888   23.2962 C   0  0  0  0  0  0  0  0  0  0  0  0
   18.7718   20.0621   22.7876 H   0  0  0  0  0  0  0  0  0  0  0  0
   18.1389   19.2201   24.1895 H   0  0  0  0  0  0  0  0  0  0  0  0
   18.1029   18.0206   22.3879 C   0  0  0  0  0  0  0  0  0  0  0  0
   18.0021   17.0838   22.9531 H   0  0  0  0  0  0  0  0  0  0  0  0
   17.0782   18.3423   22.1559 H   0  0  0  0  0  0  0  0  0  0  0  0
   18.8473   17.7252   21.0606 C   0  0  0  0  0  0  0  0  0  0  0  0
   18.2862   16.9581   20.5087 H   0  0  0  0  0  0  0  0  0  0  0  0
   19.8320   17.2849   21.2670 H   0  0  0  0  0  0  0  0  0  0  0  0
   19.0105   18.9683   20.1567 C   0  0  0  0  0  0  0  0  0  0  0  0
   18.0395   19.4375   19.9518 H   0  0  0  0  0  0  0  0  0  0  0  0
   19.4576   18.6880   19.1943 H   0  0  0  0  0  0  0  0  0  0  0  0
   19.6646   19.7185   20.6183 H   0  0  0  0  0  0  0  0  0  0  0  0
   22.6538   20.5116   26.1595 C   0  0  0  0  0  0  0  0  0  0  0  0
   21.9852   20.5418   27.0226 H   0  0  0  0  0  0  0  0  0  0  0  0
   23.6676   20.2701   26.4864 H   0  0  0  0  0  0  0  0  0  0  0  0
   22.6500   21.4800   25.6543 H   0  0  0  0  0  0  0  0  0  0  0  0
  1  2  1  0  0  0  0
  1  3  1  0  0  0  0
  1  4  1  0  0  0  0
  4  5  1  0  0  0  0
  4  6  1  0  0  0  0
  4  7  1  0  0  0  0
  7  8  1  0  0  0  0
  7  9  1  0  0  0  0
  7 10  1  0  0  0  0
 10 11  1  0  0  0  0
 10 12  1  0  0  0  0
 10 13  1  0  0  0  0
 13 14  1  0  0  0  0
 13 15  1  0  0  0  0
 13 16  1  0  0  0  0
 16 17  1  0  0  0  0
 16 18  1  0  0  0  0
 16 19  1  0  0  0  0
 19 20  1  0  0  0  0
 19 21  1  0  0  0  0
 19 22  1  0  0  0  0
  1 23  1  0  0  0  0
 23 24  1  0  0  0  0
 23 25  1  0  0  0  0
 23 26  1  0  0  0  0
M  END
> <VConfSearch Rank>
675

> <Conf_Id>
30

> <Delta U+W>
0.910

> <U+W>
22.752

> <U>
71.870

> <W>
-49.118

> <W(PB)>
-51.409

> <W(SA)>
2.290

> <Valence>
2.682

> <Coulomb>
68.933

> <VdW>
0.255

> <VdW6>
-6.833

> <VdW12>
7.088

> <Bond>
0.205

> <Angle>
1.003

> <Pdih>
1.473

> <Idih>
0.000

> <Tether>
0.000

$$$$
VeraChem MOL file


 26 25  0  0  0  0  0  0  0  0999 V2000     
   20.2561   16.3356   22.7889 N   0  3  0  0  0  0  0  0  0  0  0  0
   20.9683   16.3499   22.0423 H   0  0  0  0  0  0  0  0  0  0  0  0
   19.3490   16.4220   22.3047 H   0  0  0  0  0  0  0  0  0  0  0  0
   20.4608   17.5064   23.7292 C   0  0  0  0  0  0  0  0  0  0  0  0
   21.4326   17.3813   24.2135 H   0  0  0  0  0  0  0  0  0  0  0  0
   19.6847   17.4593   24.4972 H   0  0  0  0  0  0  0  0  0  0  0  0
   20.4067   18.8724   23.0216 C   0  0  0  0  0  0  0  0  0  0  0  0
   21.1774   18.9099   22.2402 H   0  0  0  0  0  0  0  0  0  0  0  0
   19.4345   18.9789   22.5241 H   0  0  0  0  0  0  0  0  0  0  0  0
   20.6217   20.0332   24.0210 C   0  0  0  0  0  0  0  0  0  0  0  0
   21.5622   19.8664   24.5643 H   0  0  0  0  0  0  0  0  0  0  0  0
   19.8290   20.0207   24.7810 H   0  0  0  0  0  0  0  0  0  0  0  0
   20.6879   21.4286   23.3474 C   0  0  0  0  0  0  0  0  0  0  0  0
   20.8821   22.1842   24.1211 H   0  0  0  0  0  0  0  0  0  0  0  0
   21.5556   21.4594   22.6740 H   0  0  0  0  0  0  0  0  0  0  0  0
   19.4233   21.8410   22.5513 C   0  0  0  0  0  0  0  0  0  0  0  0
   19.2776   21.1696   21.6946 H   0  0  0  0  0  0  0  0  0  0  0  0
   19.5899   22.8397   22.1239 H   0  0  0  0  0  0  0  0  0  0  0  0
   18.1393   21.8762   23.4110 C   0  0  0  0  0  0  0  0  0  0  0  0
   17.8645   20.8749   23.7651 H   0  0  0  0  0  0  0  0  0  0  0  0
   17.2949   22.2625   22.8256 H   0  0  0  0  0  0  0  0  0  0  0  0
   18.2674   22.5275   24.2853 H   0  0  0  0  0  0  0  0  0  0  0  0
   20.3239   15.0286   23.5666 C   0  0  0  0  0  0  0  0  0  0  0  0
   20.1751   14.1939   22.8780 H   0  0  0  0  0  0  0  0  0  0  0  0
   21.3034   14.9442   24.0423 H   0  0  0  0  0  0  0  0  0  0  0  0
   19.5408   15.0227   24.3280 H   0  0  0  0  0  0  0  0  0  0  0  0
  1  2  1  0  0  0  0
  1  3  1  0  0  0  0
  1  4  1  0  0  0  0
  4  5  1  0  0  0  0
  4  6  1  0  0  0  0
  4  7  1  0  0  0  0
  7  8  1  0  0  0  0
  7  9  1  0  0  0  0
  7 10  1  0  0  0  0
 10 11  1  0  0  0  0
 10 12  1  0  0  0  0
 10 13  1  0  0  0  0
 13 14  1  0  0  0  0
 13 15  1  0  0  0  0
 13 16  1  0  0  0  0
 16 17  1  0  0  0  0
 16 18  1  0  0  0  0
 16 19  1  0  0  0  0
 19 20  1  0  0  0  0
 19 21  1  0  0  0  0
 19 22  1  0  0  0  0
  1 23  1  0  0  0  0
 23 24  1  0  0  0  0
 23 25  1  0  0  0  0
 23 26  1  0  0  0  0
M  END
> <VConfSearch Rank>
676

> <Conf_Id>
29

> <Delta U+W>
0.886

> <U+W>
22.729

> <U>
71.870

> <W>
-49.141

> <W(PB)>
-51.404

> <W(SA)>
2.262

> <Valence>
2.682

> <Coulomb>
68.933

> <VdW>
0.255

> <VdW6>
-6.833

> <VdW12>
7.088

> <Bond>
0.205

> <Angle>
1.003

> <Pdih>
1.473

> <Idih>
0.000

> <Tether>
0.000

$$$$
VeraChem MOL file


 26 25  0  0  0  0  0  0  0  0999 V2000     
   20.0451   21.7108   23.1863 N   0  3  0  0  0  0  0  0  0  0  0  0
   20.6386   22.1837   23.8855 H   0  0  0  0  0  0  0  0  0  0  0  0
   19.1046   21.6677   23.6083 H   0  0  0  0  0  0  0  0  0  0  0  0
   20.5641   20.3121   22.9204 C   0  0  0  0  0  0  0  0  0  0  0  0
   21.5635   20.4013   22.4873 H   0  0  0  0  0  0  0  0  0  0  0  0
   19.9077   19.8481   22.1804 H   0  0  0  0  0  0  0  0  0  0  0  0
   20.6239   19.4338   24.1846 C   0  0  0  0  0  0  0  0  0  0  0  0
   21.2569   19.9259   24.9348 H   0  0  0  0  0  0  0  0  0  0  0  0
   19.6234   19.3559   24.6288 H   0  0  0  0  0  0  0  0  0  0  0  0
   21.1896   18.0196   23.9029 C   0  0  0  0  0  0  0  0  0  0  0  0
   21.2237   17.4527   24.8428 H   0  0  0  0  0  0  0  0  0  0  0  0
   22.2346   18.1141   23.5767 H   0  0  0  0  0  0  0  0  0  0  0  0
   20.4095   17.2068   22.8344 C   0  0  0  0  0  0  0  0  0  0  0  0
   20.5190   17.6918   21.8550 H   0  0  0  0  0  0  0  0  0  0  0  0
   20.8832   16.2210   22.7291 H   0  0  0  0  0  0  0  0  0  0  0  0
   18.9009   17.0073   23.1291 C   0  0  0  0  0  0  0  0  0  0  0  0
   18.4560   16.4331   22.3044 H   0  0  0  0  0  0  0  0  0  0  0  0
   18.3832   17.9758   23.1337 H   0  0  0  0  0  0  0  0  0  0  0  0
   18.6286   16.2635   24.4563 C   0  0  0  0  0  0  0  0  0  0  0  0
   17.5544   16.0724   24.5768 H   0  0  0  0  0  0  0  0  0  0  0  0
   18.9588   16.8508   25.3221 H   0  0  0  0  0  0  0  0  0  0  0  0
   19.1463   15.2959   24.4796 H   0  0  0  0  0  0  0  0  0  0  0  0
   20.0121   22.5059   21.8885 C   0  0  0  0  0  0  0  0  0  0  0  0
   19.6369   23.5110   22.0937 H   0  0  0  0  0  0  0  0  0  0  0  0
   21.0226   22.5660   21.4783 H   0  0  0  0  0  0  0  0  0  0  0  0
   19.3528   22.0044   21.1766 H   0  0  0  0  0  0  0  0  0  0  0  0
  1  2  1  0  0  0  0
  1  3  1  0  0  0  0
  1  4  1  0  0  0  0
  4  5  1  0  0  0  0
  4  6  1  0  0  0  0
  4  7  1  0  0  0  0
  7  8  1  0  0  0  0
  7  9  1  0  0  0  0
  7 10  1  0  0  0  0
 10 11  1  0  0  0  0
 10 12  1  0  0  0  0
 10 13  1  0  0  0  0
 13 14  1  0  0  0  0
 13 15  1  0  0  0  0
 13 16  1  0  0  0  0
 16 17  1  0  0  0  0
 16 18  1  0  0  0  0
 16 19  1  0  0  0  0
 19 20  1  0  0  0  0
 19 21  1  0  0  0  0
 19 22  1  0  0  0  0
  1 23  1  0  0  0  0
 23 24  1  0  0  0  0
 23 25  1  0  0  0  0
 23 26  1  0  0  0  0
M  END
> <VConfSearch Rank>
677

> <Conf_Id>
82

> <Delta U+W>
1.026

> <U+W>
22.868

> <U>
72.455

> <W>
-49.586

> <W(PB)>
-51.821

> <W(SA)>
2.234

> <Valence>
2.908

> <Coulomb>
69.435

> <VdW>
0.112

> <VdW6>
-7.765

> <VdW12>
7.877

> <Bond>
0.233

> <Angle>
1.170

> <Pdih>
1.506

> <Idih>
0.000

> <Tether>
0.000

$$$$
VeraChem MOL file


 26 25  0  0  0  0  0  0  0  0999 V2000     
   18.3853   20.2398   24.9362 N   0  3  0  0  0  0  0  0  0  0  0  0
   17.6621   19.7326   24.4031 H   0  0  0  0  0  0  0  0  0  0  0  0
   18.1994   21.2407   24.7677 H   0  0  0  0  0  0  0  0  0  0  0  0
   19.7647   19.8717   24.4281 C   0  0  0  0  0  0  0  0  0  0  0  0
   19.9184   18.8075   24.6224 H   0  0  0  0  0  0  0  0  0  0  0  0
   20.4983   20.4377   25.0077 H   0  0  0  0  0  0  0  0  0  0  0  0
   19.9577   20.1584   22.9268 C   0  0  0  0  0  0  0  0  0  0  0  0
   19.2117   19.6023   22.3449 H   0  0  0  0  0  0  0  0  0  0  0  0
   19.7662   21.2228   22.7365 H   0  0  0  0  0  0  0  0  0  0  0  0
   21.3831   19.8102   22.4309 C   0  0  0  0  0  0  0  0  0  0  0  0
   22.1050   20.4660   22.9371 H   0  0  0  0  0  0  0  0  0  0  0  0
   21.4612   20.0538   21.3629 H   0  0  0  0  0  0  0  0  0  0  0  0
   21.8102   18.3349   22.6593 C   0  0  0  0  0  0  0  0  0  0  0  0
   22.8228   18.1967   22.2560 H   0  0  0  0  0  0  0  0  0  0  0  0
   21.8941   18.1420   23.7373 H   0  0  0  0  0  0  0  0  0  0  0  0
   20.8728   17.2721   22.0314 C   0  0  0  0  0  0  0  0  0  0  0  0
   19.8789   17.3197   22.4962 H   0  0  0  0  0  0  0  0  0  0  0  0
   21.2672   16.2739   22.2678 H   0  0  0  0  0  0  0  0  0  0  0  0
   20.7384   17.4030   20.4972 C   0  0  0  0  0  0  0  0  0  0  0  0
   20.2470   18.3423   20.2147 H   0  0  0  0  0  0  0  0  0  0  0  0
   20.1356   16.5798   20.0922 H   0  0  0  0  0  0  0  0  0  0  0  0
   21.7219   17.3697   20.0108 H   0  0  0  0  0  0  0  0  0  0  0  0
   18.2779   19.9192   26.4205 C   0  0  0  0  0  0  0  0  0  0  0  0
   19.0304   20.4919   26.9670 H   0  0  0  0  0  0  0  0  0  0  0  0
   17.2803   20.1892   26.7740 H   0  0  0  0  0  0  0  0  0  0  0  0
   18.4455   18.8503   26.5701 H   0  0  0  0  0  0  0  0  0  0  0  0
  1  2  1  0  0  0  0
  1  3  1  0  0  0  0
  1  4  1  0  0  0  0
  4  5  1  0  0  0  0
  4  6  1  0  0  0  0
  4  7  1  0  0  0  0
  7  8  1  0  0  0  0
  7  9  1  0  0  0  0
  7 10  1  0  0  0  0
 10 11  1  0  0  0  0
 10 12  1  0  0  0  0
 10 13  1  0  0  0  0
 13 14  1  0  0  0  0
 13 15  1  0  0  0  0
 13 16  1  0  0  0  0
 16 17  1  0  0  0  0
 16 18  1  0  0  0  0
 16 19  1  0  0  0  0
 19 20  1  0  0  0  0
 19 21  1  0  0  0  0
 19 22  1  0  0  0  0
  1 23  1  0  0  0  0
 23 24  1  0  0  0  0
 23 25  1  0  0  0  0
 23 26  1  0  0  0  0
M  END
> <VConfSearch Rank>
678

> <Conf_Id>
71

> <Delta U+W>
1.096

> <U+W>
22.938

> <U>
72.455

> <W>
-49.517

> <W(PB)>
-51.795

> <W(SA)>
2.278

> <Valence>
2.908

> <Coulomb>
69.435

> <VdW>
0.112

> <VdW6>
-7.766

> <VdW12>
7.877

> <Bond>
0.233

> <Angle>
1.170

> <Pdih>
1.506

> <Idih>
0.000

> <Tether>
0.000

$$$$
VeraChem MOL file


 26 25  0  0  0  0  0  0  0  0999 V2000     
   21.9898   18.0115   24.2177 N   0  3  0  0  0  0  0  0  0  0  0  0
   21.8847   18.2328   23.2164 H   0  0  0  0  0  0  0  0  0  0  0  0
   22.3714   17.0526   24.2440 H   0  0  0  0  0  0  0  0  0  0  0  0
   20.6317   18.0392   24.9009 C   0  0  0  0  0  0  0  0  0  0  0  0
   20.7885   17.8191   25.9598 H   0  0  0  0  0  0  0  0  0  0  0  0
   20.0359   17.2279   24.4760 H   0  0  0  0  0  0  0  0  0  0  0  0
   19.8525   19.3666   24.7587 C   0  0  0  0  0  0  0  0  0  0  0  0
   18.8920   19.2666   25.2813 H   0  0  0  0  0  0  0  0  0  0  0  0
   20.3969   20.1649   25.2795 H   0  0  0  0  0  0  0  0  0  0  0  0
   19.5937   19.7971   23.2928 C   0  0  0  0  0  0  0  0  0  0  0  0
   20.5494   19.9772   22.7828 H   0  0  0  0  0  0  0  0  0  0  0  0
   19.0703   20.7618   23.3093 H   0  0  0  0  0  0  0  0  0  0  0  0
   18.7562   18.7669   22.4927 C   0  0  0  0  0  0  0  0  0  0  0  0
   19.2637   17.7934   22.5006 H   0  0  0  0  0  0  0  0  0  0  0  0
   17.7873   18.6137   22.9876 H   0  0  0  0  0  0  0  0  0  0  0  0
   18.5233   19.1751   21.0176 C   0  0  0  0  0  0  0  0  0  0  0  0
   18.0253   18.3448   20.4975 H   0  0  0  0  0  0  0  0  0  0  0  0
   19.4895   19.3171   20.5136 H   0  0  0  0  0  0  0  0  0  0  0  0
   17.6614   20.4484   20.8583 C   0  0  0  0  0  0  0  0  0  0  0  0
   18.1737   21.3352   21.2512 H   0  0  0  0  0  0  0  0  0  0  0  0
   16.7022   20.3444   21.3818 H   0  0  0  0  0  0  0  0  0  0  0  0
   17.4460   20.6359   19.7984 H   0  0  0  0  0  0  0  0  0  0  0  0
   22.9626   18.9762   24.8858 C   0  0  0  0  0  0  0  0  0  0  0  0
   23.9329   18.9066   24.3889 H   0  0  0  0  0  0  0  0  0  0  0  0
   22.5777   19.9943   24.7993 H   0  0  0  0  0  0  0  0  0  0  0  0
   23.0676   18.7074   25.9391 H   0  0  0  0  0  0  0  0  0  0  0  0
  1  2  1  0  0  0  0
  1  3  1  0  0  0  0
  1  4  1  0  0  0  0
  4  5  1  0  0  0  0
  4  6  1  0  0  0  0
  4  7  1  0  0  0  0
  7  8  1  0  0  0  0
  7  9  1  0  0  0  0
  7 10  1  0  0  0  0
 10 11  1  0  0  0  0
 10 12  1  0  0  0  0
 10 13  1  0  0  0  0
 13 14  1  0  0  0  0
 13 15  1  0  0  0  0
 13 16  1  0  0  0  0
 16 17  1  0  0  0  0
 16 18  1  0  0  0  0
 16 19  1  0  0  0  0
 19 20  1  0  0  0  0
 19 21  1  0  0  0  0
 19 22  1  0  0  0  0
  1 23  1  0  0  0  0
 23 24  1  0  0  0  0
 23 25  1  0  0  0  0
 23 26  1  0  0  0  0
M  END
> <VConfSearch Rank>
679

> <Conf_Id>
84

> <Delta U+W>
1.456

> <U+W>
23.298

> <U>
73.042

> <W>
-49.744

> <W(PB)>
-51.966

> <W(SA)>
2.222

> <Valence>
2.938

> <Coulomb>
69.625

> <VdW>
0.478

> <VdW6>
-8.182

> <VdW12>
8.660

> <Bond>
0.253

> <Angle>
1.038

> <Pdih>
1.647

> <Idih>
0.000

> <Tether>
0.000

$$$$
VeraChem MOL file


 26 25  0  0  0  0  0  0  0  0999 V2000     
   19.0297   20.8045   24.6559 N   0  3  0  0  0  0  0  0  0  0  0  0
   19.2500   20.9260   23.6560 H   0  0  0  0  0  0  0  0  0  0  0  0
   19.5907   21.5145   25.1517 H   0  0  0  0  0  0  0  0  0  0  0  0
   19.4302   19.4141   25.1090 C   0  0  0  0  0  0  0  0  0  0  0  0
   18.8140   18.6929   24.5670 H   0  0  0  0  0  0  0  0  0  0  0  0
   19.1927   19.3313   26.1727 H   0  0  0  0  0  0  0  0  0  0  0  0
   20.9232   19.0925   24.8910 C   0  0  0  0  0  0  0  0  0  0  0  0
   21.5314   19.7902   25.4819 H   0  0  0  0  0  0  0  0  0  0  0  0
   21.1292   18.0917   25.2932 H   0  0  0  0  0  0  0  0  0  0  0  0
   21.3719   19.1493   23.4089 C   0  0  0  0  0  0  0  0  0  0  0  0
   22.4453   18.9191   23.3604 H   0  0  0  0  0  0  0  0  0  0  0  0
   21.2631   20.1720   23.0238 H   0  0  0  0  0  0  0  0  0  0  0  0
   20.6002   18.1626   22.4998 C   0  0  0  0  0  0  0  0  0  0  0  0
   20.6921   17.1443   22.9023 H   0  0  0  0  0  0  0  0  0  0  0  0
   19.5300   18.4088   22.4997 H   0  0  0  0  0  0  0  0  0  0  0  0
   21.1251   18.1901   21.0470 C   0  0  0  0  0  0  0  0  0  0  0  0
   22.1940   17.9346   21.0332 H   0  0  0  0  0  0  0  0  0  0  0  0
   21.0374   19.2070   20.6395 H   0  0  0  0  0  0  0  0  0  0  0  0
   20.3528   17.2075   20.1409 C   0  0  0  0  0  0  0  0  0  0  0  0
   20.4498   16.1760   20.5039 H   0  0  0  0  0  0  0  0  0  0  0  0
   20.7401   17.2408   19.1143 H   0  0  0  0  0  0  0  0  0  0  0  0
   19.2846   17.4586   20.1060 H   0  0  0  0  0  0  0  0  0  0  0  0
   17.5445   21.0242   24.9066 C   0  0  0  0  0  0  0  0  0  0  0  0
   17.3415   20.9202   25.9747 H   0  0  0  0  0  0  0  0  0  0  0  0
   17.2698   22.0281   24.5750 H   0  0  0  0  0  0  0  0  0  0  0  0
   16.9720   20.2812   24.3470 H   0  0  0  0  0  0  0  0  0  0  0  0
  1  2  1  0  0  0  0
  1  3  1  0  0  0  0
  1  4  1  0  0  0  0
  4  5  1  0  0  0  0
  4  6  1  0  0  0  0
  4  7  1  0  0  0  0
  7  8  1  0  0  0  0
  7  9  1  0  0  0  0
  7 10  1  0  0  0  0
 10 11  1  0  0  0  0
 10 12  1  0  0  0  0
 10 13  1  0  0  0  0
 13 14  1  0  0  0  0
 13 15  1  0  0  0  0
 13 16  1  0  0  0  0
 16 17  1  0  0  0  0
 16 18  1  0  0  0  0
 16 19  1  0  0  0  0
 19 20  1  0  0  0  0
 19 21  1  0  0  0  0
 19 22  1  0  0  0  0
  1 23  1  0  0  0  0
 23 24  1  0  0  0  0
 23 25  1  0  0  0  0
 23 26  1  0  0  0  0
M  END
> <VConfSearch Rank>
680

> <Conf_Id>
73

> <Delta U+W>
0.884

> <U+W>
22.726

> <U>
71.905

> <W>
-49.179

> <W(PB)>
-51.494

> <W(SA)>
2.315

> <Valence>
2.125

> <Coulomb>
69.686

> <VdW>
0.093

> <VdW6>
-6.766

> <VdW12>
6.859

> <Bond>
0.169

> <Angle>
0.621

> <Pdih>
1.336

> <Idih>
0.000

> <Tether>
0.000

$$$$
VeraChem MOL file


 26 25  0  0  0  0  0  0  0  0999 V2000     
   21.4898   16.4215   24.4369 N   0  3  0  0  0  0  0  0  0  0  0  0
   21.2100   15.8055   23.6577 H   0  0  0  0  0  0  0  0  0  0  0  0
   20.8016   16.2467   25.1856 H   0  0  0  0  0  0  0  0  0  0  0  0
   21.4330   17.8724   24.0027 C   0  0  0  0  0  0  0  0  0  0  0  0
   22.1680   18.0131   23.2061 H   0  0  0  0  0  0  0  0  0  0  0  0
   21.7272   18.4893   24.8556 H   0  0  0  0  0  0  0  0  0  0  0  0
   20.0416   18.3052   23.5059 C   0  0  0  0  0  0  0  0  0  0  0  0
   19.7429   17.6720   22.6597 H   0  0  0  0  0  0  0  0  0  0  0  0
   19.3036   18.1467   24.3036 H   0  0  0  0  0  0  0  0  0  0  0  0
   20.0314   19.7886   23.0748 C   0  0  0  0  0  0  0  0  0  0  0  0
   20.7748   19.9441   22.2805 H   0  0  0  0  0  0  0  0  0  0  0  0
   20.3362   20.4183   23.9225 H   0  0  0  0  0  0  0  0  0  0  0  0
   18.6387   20.2346   22.5741 C   0  0  0  0  0  0  0  0  0  0  0  0
   18.3338   19.6052   21.7265 H   0  0  0  0  0  0  0  0  0  0  0  0
   17.8953   20.0793   23.3683 H   0  0  0  0  0  0  0  0  0  0  0  0
   18.6289   21.7183   22.1431 C   0  0  0  0  0  0  0  0  0  0  0  0
   19.3694   21.8785   21.3468 H   0  0  0  0  0  0  0  0  0  0  0  0
   18.9309   22.3525   22.9884 H   0  0  0  0  0  0  0  0  0  0  0  0
   17.2367   22.1601   21.6436 C   0  0  0  0  0  0  0  0  0  0  0  0
   17.2498   23.2156   21.3423 H   0  0  0  0  0  0  0  0  0  0  0  0
   16.4797   22.0439   22.4302 H   0  0  0  0  0  0  0  0  0  0  0  0
   16.9217   21.5662   20.7757 H   0  0  0  0  0  0  0  0  0  0  0  0
   22.8947   16.0774   24.9118 C   0  0  0  0  0  0  0  0  0  0  0  0
   23.1554   16.7186   25.7567 H   0  0  0  0  0  0  0  0  0  0  0  0
   22.9218   15.0302   25.2214 H   0  0  0  0  0  0  0  0  0  0  0  0
   23.6000   16.2384   24.0935 H   0  0  0  0  0  0  0  0  0  0  0  0
  1  2  1  0  0  0  0
  1  3  1  0  0  0  0
  1  4  1  0  0  0  0
  4  5  1  0  0  0  0
  4  6  1  0  0  0  0
  4  7  1  0  0  0  0
  7  8  1  0  0  0  0
  7  9  1  0  0  0  0
  7 10  1  0  0  0  0
 10 11  1  0  0  0  0
 10 12  1  0  0  0  0
 10 13  1  0  0  0  0
 13 14  1  0  0  0  0
 13 15  1  0  0  0  0
 13 16  1  0  0  0  0
 16 17  1  0  0  0  0
 16 18  1  0  0  0  0
 16 19  1  0  0  0  0
 19 20  1  0  0  0  0
 19 21  1  0  0  0  0
 19 22  1  0  0  0  0
  1 23  1  0  0  0  0
 23 24  1  0  0  0  0
 23 25  1  0  0  0  0
 23 26  1  0  0  0  0
M  END
> <VConfSearch Rank>
681

> <Conf_Id>
11

> <Delta U+W>
0.000

> <U+W>
21.842

> <U>
70.357

> <W>
-48.515

> <W(PB)>
-50.856

> <W(SA)>
2.341

> <Valence>
1.714

> <Coulomb>
68.480

> <VdW>
0.163

> <VdW6>
-5.268

> <VdW12>
5.431

> <Bond>
0.126

> <Angle>
0.350

> <Pdih>
1.238

> <Idih>
0.000

> <Tether>
0.000

$$$$
VeraChem MOL file


 26 25  0  0  0  0  0  0  0  0999 V2000     
   18.6281   21.9318   24.3759 N   0  3  0  0  0  0  0  0  0  0  0  0
   17.7204   22.4218   24.3305 H   0  0  0  0  0  0  0  0  0  0  0  0
   19.2827   22.5358   23.8551 H   0  0  0  0  0  0  0  0  0  0  0  0
   18.5091   20.5776   23.6969 C   0  0  0  0  0  0  0  0  0  0  0  0
   18.0359   20.7421   22.7255 H   0  0  0  0  0  0  0  0  0  0  0  0
   17.8406   19.9568   24.2987 H   0  0  0  0  0  0  0  0  0  0  0  0
   19.8512   19.8484   23.4830 C   0  0  0  0  0  0  0  0  0  0  0  0
   20.5335   20.4993   22.9204 H   0  0  0  0  0  0  0  0  0  0  0  0
   20.3238   19.6483   24.4533 H   0  0  0  0  0  0  0  0  0  0  0  0
   19.6550   18.5186   22.7218 C   0  0  0  0  0  0  0  0  0  0  0  0
   19.1801   18.7189   21.7511 H   0  0  0  0  0  0  0  0  0  0  0  0
   18.9667   17.8729   23.2848 H   0  0  0  0  0  0  0  0  0  0  0  0
   20.9934   17.7779   22.4994 C   0  0  0  0  0  0  0  0  0  0  0  0
   21.6818   18.4236   21.9367 H   0  0  0  0  0  0  0  0  0  0  0  0
   21.4683   17.5773   23.4699 H   0  0  0  0  0  0  0  0  0  0  0  0
   20.7968   16.4480   21.7380 C   0  0  0  0  0  0  0  0  0  0  0  0
   20.3242   16.6436   20.7651 H   0  0  0  0  0  0  0  0  0  0  0  0
   20.1106   15.7974   22.2982 H   0  0  0  0  0  0  0  0  0  0  0  0
   22.1353   15.7112   21.5178 C   0  0  0  0  0  0  0  0  0  0  0  0
   21.9752   14.7700   20.9761 H   0  0  0  0  0  0  0  0  0  0  0  0
   22.6160   15.4710   22.4751 H   0  0  0  0  0  0  0  0  0  0  0  0
   22.8313   16.3237   20.9300 H   0  0  0  0  0  0  0  0  0  0  0  0
   19.0647   21.7851   25.8292 C   0  0  0  0  0  0  0  0  0  0  0  0
   20.0543   21.3251   25.8652 H   0  0  0  0  0  0  0  0  0  0  0  0
   19.1027   22.7737   26.2923 H   0  0  0  0  0  0  0  0  0  0  0  0
   18.3445   21.1576   26.3586 H   0  0  0  0  0  0  0  0  0  0  0  0
  1  2  1  0  0  0  0
  1  3  1  0  0  0  0
  1  4  1  0  0  0  0
  4  5  1  0  0  0  0
  4  6  1  0  0  0  0
  4  7  1  0  0  0  0
  7  8  1  0  0  0  0
  7  9  1  0  0  0  0
  7 10  1  0  0  0  0
 10 11  1  0  0  0  0
 10 12  1  0  0  0  0
 10 13  1  0  0  0  0
 13 14  1  0  0  0  0
 13 15  1  0  0  0  0
 13 16  1  0  0  0  0
 16 17  1  0  0  0  0
 16 18  1  0  0  0  0
 16 19  1  0  0  0  0
 19 20  1  0  0  0  0
 19 21  1  0  0  0  0
 19 22  1  0  0  0  0
  1 23  1  0  0  0  0
 23 24  1  0  0  0  0
 23 25  1  0  0  0  0
 23 26  1  0  0  0  0
M  END
> <VConfSearch Rank>
682

> <Conf_Id>
102

> <Delta U+W>
0.121

> <U+W>
21.963

> <U>
70.745

> <W>
-48.782

> <W(PB)>
-51.111

> <W(SA)>
2.329

> <Valence>
1.993

> <Coulomb>
68.323

> <VdW>
0.429

> <VdW6>
-5.973

> <VdW12>
6.402

> <Bond>
0.161

> <Angle>
0.472

> <Pdih>
1.360

> <Idih>
0.000

> <Tether>
0.000

$$$$
VeraChem MOL file


 26 25  0  0  0  0  0  0  0  0999 V2000     
   22.1203   16.9056   21.6103 N   0  3  0  0  0  0  0  0  0  0  0  0
   22.1567   17.4774   20.7522 H   0  0  0  0  0  0  0  0  0  0  0  0
   22.0972   15.9283   21.2781 H   0  0  0  0  0  0  0  0  0  0  0  0
   20.8511   17.2077   22.3895 C   0  0  0  0  0  0  0  0  0  0  0  0
   20.8698   16.6136   23.3067 H   0  0  0  0  0  0  0  0  0  0  0  0
   20.0086   16.8671   21.7821 H   0  0  0  0  0  0  0  0  0  0  0  0
   20.6503   18.6976   22.7336 C   0  0  0  0  0  0  0  0  0  0  0  0
   21.4739   19.0459   23.3702 H   0  0  0  0  0  0  0  0  0  0  0  0
   20.6827   19.2919   21.8109 H   0  0  0  0  0  0  0  0  0  0  0  0
   19.3057   18.9327   23.4568 C   0  0  0  0  0  0  0  0  0  0  0  0
   19.2746   18.3312   24.3761 H   0  0  0  0  0  0  0  0  0  0  0  0
   18.4812   18.5822   22.8202 H   0  0  0  0  0  0  0  0  0  0  0  0
   19.0912   20.4230   23.8066 C   0  0  0  0  0  0  0  0  0  0  0  0
   19.9153   20.7735   24.4434 H   0  0  0  0  0  0  0  0  0  0  0  0
   19.1225   21.0245   22.8875 H   0  0  0  0  0  0  0  0  0  0  0  0
   17.7462   20.6578   24.5298 C   0  0  0  0  0  0  0  0  0  0  0  0
   17.7109   20.0598   25.4513 H   0  0  0  0  0  0  0  0  0  0  0  0
   16.9182   20.3112   23.8955 H   0  0  0  0  0  0  0  0  0  0  0  0
   17.5357   22.1469   24.8776 C   0  0  0  0  0  0  0  0  0  0  0  0
   18.3305   22.5140   25.5399 H   0  0  0  0  0  0  0  0  0  0  0  0
   16.5761   22.2935   25.3901 H   0  0  0  0  0  0  0  0  0  0  0  0
   17.5318   22.7673   23.9719 H   0  0  0  0  0  0  0  0  0  0  0  0
   23.3615   17.1319   22.4661 C   0  0  0  0  0  0  0  0  0  0  0  0
   23.3037   16.5011   23.3558 H   0  0  0  0  0  0  0  0  0  0  0  0
   24.2485   16.8695   21.8852 H   0  0  0  0  0  0  0  0  0  0  0  0
   23.4126   18.1825   22.7589 H   0  0  0  0  0  0  0  0  0  0  0  0
  1  2  1  0  0  0  0
  1  3  1  0  0  0  0
  1  4  1  0  0  0  0
  4  5  1  0  0  0  0
  4  6  1  0  0  0  0
  4  7  1  0  0  0  0
  7  8  1  0  0  0  0
  7  9  1  0  0  0  0
  7 10  1  0  0  0  0
 10 11  1  0  0  0  0
 10 12  1  0  0  0  0
 10 13  1  0  0  0  0
 13 14  1  0  0  0  0
 13 15  1  0  0  0  0
 13 16  1  0  0  0  0
 16 17  1  0  0  0  0
 16 18  1  0  0  0  0
 16 19  1  0  0  0  0
 19 20  1  0  0  0  0
 19 21  1  0  0  0  0
 19 22  1  0  0  0  0
  1 23  1  0  0  0  0
 23 24  1  0  0  0  0
 23 25  1  0  0  0  0
 23 26  1  0  0  0  0
M  END
> <VConfSearch Rank>
683

> <Conf_Id>
37

> <Delta U+W>
0.125

> <U+W>
21.967

> <U>
70.745

> <W>
-48.778

> <W(PB)>
-51.115

> <W(SA)>
2.337

> <Valence>
1.993

> <Coulomb>
68.323

> <VdW>
0.429

> <VdW6>
-5.973

> <VdW12>
6.403

> <Bond>
0.161

> <Angle>
0.472

> <Pdih>
1.360

> <Idih>
0.000

> <Tether>
0.000

$$$$
VeraChem MOL file


 26 25  0  0  0  0  0  0  0  0999 V2000     
   19.0812   17.3962   25.6194 N   0  3  0  0  0  0  0  0  0  0  0  0
   18.6840   16.5052   25.2830 H   0  0  0  0  0  0  0  0  0  0  0  0
   18.2692   17.9805   25.8724 H   0  0  0  0  0  0  0  0  0  0  0  0
   19.8811   18.0614   24.5175 C   0  0  0  0  0  0  0  0  0  0  0  0
   20.7222   17.4081   24.2726 H   0  0  0  0  0  0  0  0  0  0  0  0
   20.2769   18.9993   24.9141 H   0  0  0  0  0  0  0  0  0  0  0  0
   19.0537   18.3389   23.2475 C   0  0  0  0  0  0  0  0  0  0  0  0
   18.6237   17.3947   22.8875 H   0  0  0  0  0  0  0  0  0  0  0  0
   18.2085   18.9957   23.4928 H   0  0  0  0  0  0  0  0  0  0  0  0
   19.8920   18.9725   22.1118 C   0  0  0  0  0  0  0  0  0  0  0  0
   19.2632   19.0333   21.2141 H   0  0  0  0  0  0  0  0  0  0  0  0
   20.7302   18.3079   21.8607 H   0  0  0  0  0  0  0  0  0  0  0  0
   20.4297   20.3824   22.4666 C   0  0  0  0  0  0  0  0  0  0  0  0
   19.5898   21.0521   22.6977 H   0  0  0  0  0  0  0  0  0  0  0  0
   21.0386   20.3249   23.3784 H   0  0  0  0  0  0  0  0  0  0  0  0
   21.2971   21.0103   21.3485 C   0  0  0  0  0  0  0  0  0  0  0  0
   22.1456   20.3500   21.1208 H   0  0  0  0  0  0  0  0  0  0  0  0
   21.7305   21.9478   21.7241 H   0  0  0  0  0  0  0  0  0  0  0  0
   20.5101   21.3119   20.0525 C   0  0  0  0  0  0  0  0  0  0  0  0
   20.1621   20.3917   19.5675 H   0  0  0  0  0  0  0  0  0  0  0  0
   21.1459   21.8429   19.3322 H   0  0  0  0  0  0  0  0  0  0  0  0
   19.6369   21.9444   20.2585 H   0  0  0  0  0  0  0  0  0  0  0  0
   19.9687   17.1606   26.8337 C   0  0  0  0  0  0  0  0  0  0  0  0
   20.3500   18.1195   27.1915 H   0  0  0  0  0  0  0  0  0  0  0  0
   19.3807   16.6811   27.6195 H   0  0  0  0  0  0  0  0  0  0  0  0
   20.8017   16.5137   26.5497 H   0  0  0  0  0  0  0  0  0  0  0  0
  1  2  1  0  0  0  0
  1  3  1  0  0  0  0
  1  4  1  0  0  0  0
  4  5  1  0  0  0  0
  4  6  1  0  0  0  0
  4  7  1  0  0  0  0
  7  8  1  0  0  0  0
  7  9  1  0  0  0  0
  7 10  1  0  0  0  0
 10 11  1  0  0  0  0
 10 12  1  0  0  0  0
 10 13  1  0  0  0  0
 13 14  1  0  0  0  0
 13 15  1  0  0  0  0
 13 16  1  0  0  0  0
 16 17  1  0  0  0  0
 16 18  1  0  0  0  0
 16 19  1  0  0  0  0
 19 20  1  0  0  0  0
 19 21  1  0  0  0  0
 19 22  1  0  0  0  0
  1 23  1  0  0  0  0
 23 24  1  0  0  0  0
 23 25  1  0  0  0  0
 23 26  1  0  0  0  0
M  END
> <VConfSearch Rank>
684

> <Conf_Id>
137

> <Delta U+W>
1.038

> <U+W>
22.880

> <U>
71.810

> <W>
-48.930

> <W(PB)>
-51.257

> <W(SA)>
2.327

> <Valence>
2.568

> <Coulomb>
68.877

> <VdW>
0.364

> <VdW6>
-6.470

> <VdW12>
6.834

> <Bond>
0.191

> <Angle>
0.752

> <Pdih>
1.626

> <Idih>
0.000

> <Tether>
0.000

$$$$
VeraChem MOL file


 26 25  0  0  0  0  0  0  0  0999 V2000     
   17.5276   20.3425   22.4622 N   0  3  0  0  0  0  0  0  0  0  0  0
   17.8192   21.1621   23.0171 H   0  0  0  0  0  0  0  0  0  0  0  0
   16.9330   19.7818   23.0921 H   0  0  0  0  0  0  0  0  0  0  0  0
   18.7410   19.5401   22.0368 C   0  0  0  0  0  0  0  0  0  0  0  0
   19.3461   20.1701   21.3800 H   0  0  0  0  0  0  0  0  0  0  0  0
   18.3891   18.6805   21.4609 H   0  0  0  0  0  0  0  0  0  0  0  0
   19.5963   19.0551   23.2213 C   0  0  0  0  0  0  0  0  0  0  0  0
   19.9276   19.9250   23.8020 H   0  0  0  0  0  0  0  0  0  0  0  0
   18.9800   18.4360   23.8867 H   0  0  0  0  0  0  0  0  0  0  0  0
   20.8188   18.2406   22.7362 C   0  0  0  0  0  0  0  0  0  0  0  0
   21.4618   18.8746   22.1099 H   0  0  0  0  0  0  0  0  0  0  0  0
   20.4691   17.4236   22.0898 H   0  0  0  0  0  0  0  0  0  0  0  0
   21.6552   17.6310   23.8885 C   0  0  0  0  0  0  0  0  0  0  0  0
   21.0166   16.9829   24.5045 H   0  0  0  0  0  0  0  0  0  0  0  0
   22.4249   16.9792   23.4524 H   0  0  0  0  0  0  0  0  0  0  0  0
   22.3420   18.6897   24.7837 C   0  0  0  0  0  0  0  0  0  0  0  0
   21.5873   19.3037   25.2929 H   0  0  0  0  0  0  0  0  0  0  0  0
   22.9400   19.3704   24.1617 H   0  0  0  0  0  0  0  0  0  0  0  0
   23.2521   18.0344   25.8445 C   0  0  0  0  0  0  0  0  0  0  0  0
   22.6766   17.3697   26.5019 H   0  0  0  0  0  0  0  0  0  0  0  0
   23.7285   18.7987   26.4721 H   0  0  0  0  0  0  0  0  0  0  0  0
   24.0475   17.4432   25.3724 H   0  0  0  0  0  0  0  0  0  0  0  0
   16.7405   20.7812   21.2351 C   0  0  0  0  0  0  0  0  0  0  0  0
   16.4146   19.8973   20.6825 H   0  0  0  0  0  0  0  0  0  0  0  0
   15.8697   21.3578   21.5553 H   0  0  0  0  0  0  0  0  0  0  0  0
   17.3794   21.3997   20.6007 H   0  0  0  0  0  0  0  0  0  0  0  0
  1  2  1  0  0  0  0
  1  3  1  0  0  0  0
  1  4  1  0  0  0  0
  4  5  1  0  0  0  0
  4  6  1  0  0  0  0
  4  7  1  0  0  0  0
  7  8  1  0  0  0  0
  7  9  1  0  0  0  0
  7 10  1  0  0  0  0
 10 11  1  0  0  0  0
 10 12  1  0  0  0  0
 10 13  1  0  0  0  0
 13 14  1  0  0  0  0
 13 15  1  0  0  0  0
 13 16  1  0  0  0  0
 16 17  1  0  0  0  0
 16 18  1  0  0  0  0
 16 19  1  0  0  0  0
 19 20  1  0  0  0  0
 19 21  1  0  0  0  0
 19 22  1  0  0  0  0
  1 23  1  0  0  0  0
 23 24  1  0  0  0  0
 23 25  1  0  0  0  0
 23 26  1  0  0  0  0
M  END
> <VConfSearch Rank>
685

> <Conf_Id>
35

> <Delta U+W>
0.670

> <U+W>
22.512

> <U>
71.348

> <W>
-48.837

> <W(PB)>
-51.150

> <W(SA)>
2.313

> <Valence>
2.262

> <Coulomb>
68.807

> <VdW>
0.280

> <VdW6>
-5.915

> <VdW12>
6.195

> <Bond>
0.164

> <Angle>
0.622

> <Pdih>
1.475

> <Idih>
0.000

> <Tether>
0.000

$$$$
VeraChem MOL file


 26 25  0  0  0  0  0  0  0  0999 V2000     
   22.1640   17.5597   24.7116 N   0  3  0  0  0  0  0  0  0  0  0  0
   21.8679   17.8479   25.6572 H   0  0  0  0  0  0  0  0  0  0  0  0
   22.8157   18.2934   24.3924 H   0  0  0  0  0  0  0  0  0  0  0  0
   20.9648   17.4869   23.7877 C   0  0  0  0  0  0  0  0  0  0  0  0
   20.2986   16.7067   24.1642 H   0  0  0  0  0  0  0  0  0  0  0  0
   21.3212   17.1878   22.7987 H   0  0  0  0  0  0  0  0  0  0  0  0
   20.1967   18.8168   23.6808 C   0  0  0  0  0  0  0  0  0  0  0  0
   19.8548   19.1216   24.6789 H   0  0  0  0  0  0  0  0  0  0  0  0
   20.8802   19.5957   23.3202 H   0  0  0  0  0  0  0  0  0  0  0  0
   18.9827   18.6907   22.7303 C   0  0  0  0  0  0  0  0  0  0  0  0
   18.3551   17.8522   23.0631 H   0  0  0  0  0  0  0  0  0  0  0  0
   19.3286   18.4337   21.7194 H   0  0  0  0  0  0  0  0  0  0  0  0
   18.1062   19.9661   22.6705 C   0  0  0  0  0  0  0  0  0  0  0  0
   17.2127   19.7463   22.0697 H   0  0  0  0  0  0  0  0  0  0  0  0
   17.7455   20.2131   23.6786 H   0  0  0  0  0  0  0  0  0  0  0  0
   18.8321   21.1895   22.0618 C   0  0  0  0  0  0  0  0  0  0  0  0
   19.2381   20.9272   21.0748 H   0  0  0  0  0  0  0  0  0  0  0  0
   19.6849   21.4768   22.6910 H   0  0  0  0  0  0  0  0  0  0  0  0
   17.8855   22.4006   21.9195 C   0  0  0  0  0  0  0  0  0  0  0  0
   17.0385   22.1653   21.2618 H   0  0  0  0  0  0  0  0  0  0  0  0
   18.4167   23.2595   21.4895 H   0  0  0  0  0  0  0  0  0  0  0  0
   17.4859   22.7060   22.8954 H   0  0  0  0  0  0  0  0  0  0  0  0
   22.8636   16.2084   24.7598 C   0  0  0  0  0  0  0  0  0  0  0  0
   23.1967   15.9403   23.7547 H   0  0  0  0  0  0  0  0  0  0  0  0
   23.7248   16.2745   25.4284 H   0  0  0  0  0  0  0  0  0  0  0  0
   22.1651   15.4554   25.1314 H   0  0  0  0  0  0  0  0  0  0  0  0
  1  2  1  0  0  0  0
  1  3  1  0  0  0  0
  1  4  1  0  0  0  0
  4  5  1  0  0  0  0
  4  6  1  0  0  0  0
  4  7  1  0  0  0  0
  7  8  1  0  0  0  0
  7  9  1  0  0  0  0
  7 10  1  0  0  0  0
 10 11  1  0  0  0  0
 10 12  1  0  0  0  0
 10 13  1  0  0  0  0
 13 14  1  0  0  0  0
 13 15  1  0  0  0  0
 13 16  1  0  0  0  0
 16 17  1  0  0  0  0
 16 18  1  0  0  0  0
 16 19  1  0  0  0  0
 19 20  1  0  0  0  0
 19 21  1  0  0  0  0
 19 22  1  0  0  0  0
  1 23  1  0  0  0  0
 23 24  1  0  0  0  0
 23 25  1  0  0  0  0
 23 26  1  0  0  0  0
M  END
> <VConfSearch Rank>
686

> <Conf_Id>
36

> <Delta U+W>
0.662

> <U+W>
22.504

> <U>
71.348

> <W>
-48.844

> <W(PB)>
-51.157

> <W(SA)>
2.313

> <Valence>
2.262

> <Coulomb>
68.807

> <VdW>
0.280

> <VdW6>
-5.916

> <VdW12>
6.195

> <Bond>
0.164

> <Angle>
0.622

> <Pdih>
1.475

> <Idih>
0.000

> <Tether>
0.000

$$$$
VeraChem MOL file


 26 25  0  0  0  0  0  0  0  0999 V2000     
   19.1978   20.2008   20.6334 N   0  3  0  0  0  0  0  0  0  0  0  0
   19.8775   19.6933   20.0458 H   0  0  0  0  0  0  0  0  0  0  0  0
   19.3735   21.2017   20.4542 H   0  0  0  0  0  0  0  0  0  0  0  0
   19.4311   19.8827   22.0966 C   0  0  0  0  0  0  0  0  0  0  0  0
   19.2398   18.8166   22.2398 H   0  0  0  0  0  0  0  0  0  0  0  0
   18.7008   20.4461   22.6829 H   0  0  0  0  0  0  0  0  0  0  0  0
   20.8552   20.2259   22.5746 C   0  0  0  0  0  0  0  0  0  0  0  0
   21.5890   19.6611   21.9844 H   0  0  0  0  0  0  0  0  0  0  0  0
   21.0507   21.2897   22.3849 H   0  0  0  0  0  0  0  0  0  0  0  0
   21.0660   19.9375   24.0798 C   0  0  0  0  0  0  0  0  0  0  0  0
   20.3484   20.5251   24.6694 H   0  0  0  0  0  0  0  0  0  0  0  0
   22.0662   20.2888   24.3690 H   0  0  0  0  0  0  0  0  0  0  0  0
   20.9307   18.4374   24.4365 C   0  0  0  0  0  0  0  0  0  0  0  0
   19.9184   18.0844   24.1983 H   0  0  0  0  0  0  0  0  0  0  0  0
   21.6259   17.8494   23.8213 H   0  0  0  0  0  0  0  0  0  0  0  0
   21.2193   18.1745   25.9314 C   0  0  0  0  0  0  0  0  0  0  0  0
   20.5271   18.7609   26.5517 H   0  0  0  0  0  0  0  0  0  0  0  0
   22.2340   18.5162   26.1797 H   0  0  0  0  0  0  0  0  0  0  0  0
   21.0825   16.6784   26.2863 C   0  0  0  0  0  0  0  0  0  0  0  0
   20.0669   16.3151   26.0820 H   0  0  0  0  0  0  0  0  0  0  0  0
   21.2916   16.5118   27.3510 H   0  0  0  0  0  0  0  0  0  0  0  0
   21.7870   16.0687   25.7056 H   0  0  0  0  0  0  0  0  0  0  0  0
   17.7735   19.8304   20.2436 C   0  0  0  0  0  0  0  0  0  0  0  0
   17.0732   20.4036   20.8552 H   0  0  0  0  0  0  0  0  0  0  0  0
   17.6186   20.0647   19.1880 H   0  0  0  0  0  0  0  0  0  0  0  0
   17.6218   18.7617   20.4103 H   0  0  0  0  0  0  0  0  0  0  0  0
  1  2  1  0  0  0  0
  1  3  1  0  0  0  0
  1  4  1  0  0  0  0
  4  5  1  0  0  0  0
  4  6  1  0  0  0  0
  4  7  1  0  0  0  0
  7  8  1  0  0  0  0
  7  9  1  0  0  0  0
  7 10  1  0  0  0  0
 10 11  1  0  0  0  0
 10 12  1  0  0  0  0
 10 13  1  0  0  0  0
 13 14  1  0  0  0  0
 13 15  1  0  0  0  0
 13 16  1  0  0  0  0
 16 17  1  0  0  0  0
 16 18  1  0  0  0  0
 16 19  1  0  0  0  0
 19 20  1  0  0  0  0
 19 21  1  0  0  0  0
 19 22  1  0  0  0  0
  1 23  1  0  0  0  0
 23 24  1  0  0  0  0
 23 25  1  0  0  0  0
 23 26  1  0  0  0  0
M  END
> <VConfSearch Rank>
687

> <Conf_Id>
46

> <Delta U+W>
0.496

> <U+W>
22.338

> <U>
71.138

> <W>
-48.799

> <W(PB)>
-51.136

> <W(SA)>
2.337

> <Valence>
2.016

> <Coulomb>
68.932

> <VdW>
0.190

> <VdW6>
-5.902

> <VdW12>
6.092

> <Bond>
0.149

> <Angle>
0.477

> <Pdih>
1.390

> <Idih>
0.000

> <Tether>
0.000

$$$$
VeraChem MOL file


 26 25  0  0  0  0  0  0  0  0999 V2000     
   19.1806   19.5406   26.1638 N   0  3  0  0  0  0  0  0  0  0  0  0
   18.1738   19.5020   26.3867 H   0  0  0  0  0  0  0  0  0  0  0  0
   19.4312   20.5410   26.1986 H   0  0  0  0  0  0  0  0  0  0  0  0
   19.4304   18.9868   24.7755 C   0  0  0  0  0  0  0  0  0  0  0  0
   19.1431   17.9324   24.7783 H   0  0  0  0  0  0  0  0  0  0  0  0
   20.5033   19.0515   24.5797 H   0  0  0  0  0  0  0  0  0  0  0  0
   18.6532   19.7326   23.6736 C   0  0  0  0  0  0  0  0  0  0  0  0
   17.5803   19.6980   23.9051 H   0  0  0  0  0  0  0  0  0  0  0  0
   18.9405   20.7925   23.6719 H   0  0  0  0  0  0  0  0  0  0  0  0
   18.8829   19.1295   22.2676 C   0  0  0  0  0  0  0  0  0  0  0  0
   18.2319   19.6490   21.5509 H   0  0  0  0  0  0  0  0  0  0  0  0
   18.5689   18.0764   22.2650 H   0  0  0  0  0  0  0  0  0  0  0  0
   20.3519   19.2376   21.7920 C   0  0  0  0  0  0  0  0  0  0  0  0
   20.6732   20.2879   21.8276 H   0  0  0  0  0  0  0  0  0  0  0  0
   21.0093   18.6806   22.4729 H   0  0  0  0  0  0  0  0  0  0  0  0
   20.5323   18.6938   20.3571 C   0  0  0  0  0  0  0  0  0  0  0  0
   19.8849   19.2502   19.6648 H   0  0  0  0  0  0  0  0  0  0  0  0
   20.2116   17.6434   20.3154 H   0  0  0  0  0  0  0  0  0  0  0  0
   21.9979   18.8007   19.8844 C   0  0  0  0  0  0  0  0  0  0  0  0
   22.3373   19.8447   19.8830 H   0  0  0  0  0  0  0  0  0  0  0  0
   22.1056   18.4103   18.8641 H   0  0  0  0  0  0  0  0  0  0  0  0
   22.6666   18.2248   20.5374 H   0  0  0  0  0  0  0  0  0  0  0  0
   19.9850   18.7524   27.1882 C   0  0  0  0  0  0  0  0  0  0  0  0
   19.7960   19.1611   28.1834 H   0  0  0  0  0  0  0  0  0  0  0  0
   19.6793   17.7044   27.1557 H   0  0  0  0  0  0  0  0  0  0  0  0
   21.0480   18.8355   26.9512 H   0  0  0  0  0  0  0  0  0  0  0  0
  1  2  1  0  0  0  0
  1  3  1  0  0  0  0
  1  4  1  0  0  0  0
  4  5  1  0  0  0  0
  4  6  1  0  0  0  0
  4  7  1  0  0  0  0
  7  8  1  0  0  0  0
  7  9  1  0  0  0  0
  7 10  1  0  0  0  0
 10 11  1  0  0  0  0
 10 12  1  0  0  0  0
 10 13  1  0  0  0  0
 13 14  1  0  0  0  0
 13 15  1  0  0  0  0
 13 16  1  0  0  0  0
 16 17  1  0  0  0  0
 16 18  1  0  0  0  0
 16 19  1  0  0  0  0
 19 20  1  0  0  0  0
 19 21  1  0  0  0  0
 19 22  1  0  0  0  0
  1 23  1  0  0  0  0
 23 24  1  0  0  0  0
 23 25  1  0  0  0  0
 23 26  1  0  0  0  0
M  END
> <VConfSearch Rank>
688

> <Conf_Id>
45

> <Delta U+W>
0.471

> <U+W>
22.313

> <U>
71.138

> <W>
-48.825

> <W(PB)>
-51.169

> <W(SA)>
2.344

> <Valence>
2.016

> <Coulomb>
68.932

> <VdW>
0.190

> <VdW6>
-5.902

> <VdW12>
6.092

> <Bond>
0.149

> <Angle>
0.477

> <Pdih>
1.390

> <Idih>
0.000

> <Tether>
0.000

$$$$
VeraChem MOL file


 26 25  0  0  0  0  0  0  0  0999 V2000     
   19.9673   16.7043   22.2686 N   0  3  0  0  0  0  0  0  0  0  0  0
   19.0200   16.9643   22.5820 H   0  0  0  0  0  0  0  0  0  0  0  0
   20.4639   16.3926   23.1176 H   0  0  0  0  0  0  0  0  0  0  0  0
   20.6658   17.9090   21.6681 C   0  0  0  0  0  0  0  0  0  0  0  0
   20.1074   18.2144   20.7797 H   0  0  0  0  0  0  0  0  0  0  0  0
   21.6619   17.5891   21.3519 H   0  0  0  0  0  0  0  0  0  0  0  0
   20.7949   19.1022   22.6352 C   0  0  0  0  0  0  0  0  0  0  0  0
   21.3581   18.7857   23.5221 H   0  0  0  0  0  0  0  0  0  0  0  0
   21.3917   19.8829   22.1451 H   0  0  0  0  0  0  0  0  0  0  0  0
   19.4201   19.6877   23.0447 C   0  0  0  0  0  0  0  0  0  0  0  0
   18.8477   18.9444   23.6155 H   0  0  0  0  0  0  0  0  0  0  0  0
   18.8371   19.8971   22.1370 H   0  0  0  0  0  0  0  0  0  0  0  0
   19.5271   20.9933   23.8707 C   0  0  0  0  0  0  0  0  0  0  0  0
   20.0781   21.7498   23.2950 H   0  0  0  0  0  0  0  0  0  0  0  0
   18.5155   21.3960   24.0182 H   0  0  0  0  0  0  0  0  0  0  0  0
   20.1971   20.7986   25.2517 C   0  0  0  0  0  0  0  0  0  0  0  0
   21.2367   20.4683   25.1260 H   0  0  0  0  0  0  0  0  0  0  0  0
   19.6764   20.0072   25.8089 H   0  0  0  0  0  0  0  0  0  0  0  0
   20.1826   22.1010   26.0803 C   0  0  0  0  0  0  0  0  0  0  0  0
   20.7224   22.9043   25.5622 H   0  0  0  0  0  0  0  0  0  0  0  0
   20.6637   21.9460   27.0547 H   0  0  0  0  0  0  0  0  0  0  0  0
   19.1552   22.4421   26.2629 H   0  0  0  0  0  0  0  0  0  0  0  0
   19.9008   15.5797   21.2447 C   0  0  0  0  0  0  0  0  0  0  0  0
   20.9152   15.3006   20.9516 H   0  0  0  0  0  0  0  0  0  0  0  0
   19.3954   14.7196   21.6895 H   0  0  0  0  0  0  0  0  0  0  0  0
   19.3441   15.9230   20.3699 H   0  0  0  0  0  0  0  0  0  0  0  0
  1  2  1  0  0  0  0
  1  3  1  0  0  0  0
  1  4  1  0  0  0  0
  4  5  1  0  0  0  0
  4  6  1  0  0  0  0
  4  7  1  0  0  0  0
  7  8  1  0  0  0  0
  7  9  1  0  0  0  0
  7 10  1  0  0  0  0
 10 11  1  0  0  0  0
 10 12  1  0  0  0  0
 10 13  1  0  0  0  0
 13 14  1  0  0  0  0
 13 15  1  0  0  0  0
 13 16  1  0  0  0  0
 16 17  1  0  0  0  0
 16 18  1  0  0  0  0
 16 19  1  0  0  0  0
 19 20  1  0  0  0  0
 19 21  1  0  0  0  0
 19 22  1  0  0  0  0
  1 23  1  0  0  0  0
 23 24  1  0  0  0  0
 23 25  1  0  0  0  0
 23 26  1  0  0  0  0
M  END
> <VConfSearch Rank>
689

> <Conf_Id>
143

> <Delta U+W>
0.915

> <U+W>
22.757

> <U>
71.994

> <W>
-49.237

> <W(PB)>
-51.537

> <W(SA)>
2.300

> <Valence>
2.376

> <Coulomb>
69.315

> <VdW>
0.303

> <VdW6>
-6.508

> <VdW12>
6.810

> <Bond>
0.182

> <Angle>
0.660

> <Pdih>
1.534

> <Idih>
0.000

> <Tether>
0.000

$$$$
VeraChem MOL file


 26 25  0  0  0  0  0  0  0  0999 V2000     
   18.9901   21.1420   24.4859 N   0  3  0  0  0  0  0  0  0  0  0  0
   19.0945   21.5046   23.5265 H   0  0  0  0  0  0  0  0  0  0  0  0
   19.8749   21.3700   24.9654 H   0  0  0  0  0  0  0  0  0  0  0  0
   18.7849   19.6395   24.4566 C   0  0  0  0  0  0  0  0  0  0  0  0
   17.8466   19.4364   23.9343 H   0  0  0  0  0  0  0  0  0  0  0  0
   18.6790   19.3029   25.4910 H   0  0  0  0  0  0  0  0  0  0  0  0
   19.9329   18.8620   23.7829 C   0  0  0  0  0  0  0  0  0  0  0  0
   20.8794   19.0909   24.2904 H   0  0  0  0  0  0  0  0  0  0  0  0
   19.7424   17.7916   23.9284 H   0  0  0  0  0  0  0  0  0  0  0  0
   20.0517   19.1622   22.2687 C   0  0  0  0  0  0  0  0  0  0  0  0
   20.1366   20.2460   22.1158 H   0  0  0  0  0  0  0  0  0  0  0  0
   19.1258   18.8544   21.7632 H   0  0  0  0  0  0  0  0  0  0  0  0
   21.2643   18.4876   21.5761 C   0  0  0  0  0  0  0  0  0  0  0  0
   21.2647   18.8088   20.5252 H   0  0  0  0  0  0  0  0  0  0  0  0
   22.2027   18.8696   22.0011 H   0  0  0  0  0  0  0  0  0  0  0  0
   21.2541   16.9371   21.6057 C   0  0  0  0  0  0  0  0  0  0  0  0
   21.6747   16.5664   20.6603 H   0  0  0  0  0  0  0  0  0  0  0  0
   20.2219   16.5619   21.6436 H   0  0  0  0  0  0  0  0  0  0  0  0
   22.0873   16.3393   22.7637 C   0  0  0  0  0  0  0  0  0  0  0  0
   21.7130   16.6493   23.7455 H   0  0  0  0  0  0  0  0  0  0  0  0
   23.1380   16.6488   22.6904 H   0  0  0  0  0  0  0  0  0  0  0  0
   22.0610   15.2425   22.7292 H   0  0  0  0  0  0  0  0  0  0  0  0
   17.8151   21.8120   25.1845 C   0  0  0  0  0  0  0  0  0  0  0  0
   17.7440   21.4364   26.2076 H   0  0  0  0  0  0  0  0  0  0  0  0
   17.9754   22.8924   25.1984 H   0  0  0  0  0  0  0  0  0  0  0  0
   16.8959   21.5824   24.6411 H   0  0  0  0  0  0  0  0  0  0  0  0
  1  2  1  0  0  0  0
  1  3  1  0  0  0  0
  1  4  1  0  0  0  0
  4  5  1  0  0  0  0
  4  6  1  0  0  0  0
  4  7  1  0  0  0  0
  7  8  1  0  0  0  0
  7  9  1  0  0  0  0
  7 10  1  0  0  0  0
 10 11  1  0  0  0  0
 10 12  1  0  0  0  0
 10 13  1  0  0  0  0
 13 14  1  0  0  0  0
 13 15  1  0  0  0  0
 13 16  1  0  0  0  0
 16 17  1  0  0  0  0
 16 18  1  0  0  0  0
 16 19  1  0  0  0  0
 19 20  1  0  0  0  0
 19 21  1  0  0  0  0
 19 22  1  0  0  0  0
  1 23  1  0  0  0  0
 23 24  1  0  0  0  0
 23 25  1  0  0  0  0
 23 26  1  0  0  0  0
M  END
> <VConfSearch Rank>
690

> <Conf_Id>
76

> <Delta U+W>
3.468

> <U+W>
25.310

> <U>
74.594

> <W>
-49.283

> <W(PB)>
-51.537

> <W(SA)>
2.253

> <Valence>
4.886

> <Coulomb>
69.332

> <VdW>
0.376

> <VdW6>
-7.329

> <VdW12>
7.705

> <Bond>
0.232

> <Angle>
1.251

> <Pdih>
3.403

> <Idih>
0.000

> <Tether>
0.000

$$$$
VeraChem MOL file


 26 25  0  0  0  0  0  0  0  0999 V2000     
   18.4503   20.1587   25.2550 N   0  3  0  0  0  0  0  0  0  0  0  0
   18.6913   21.0581   24.8102 H   0  0  0  0  0  0  0  0  0  0  0  0
   19.0375   20.1049   26.1018 H   0  0  0  0  0  0  0  0  0  0  0  0
   18.7735   19.0098   24.3209 C   0  0  0  0  0  0  0  0  0  0  0  0
   18.1380   19.1074   23.4370 H   0  0  0  0  0  0  0  0  0  0  0  0
   18.5126   18.0792   24.8313 H   0  0  0  0  0  0  0  0  0  0  0  0
   20.2518   18.9694   23.8935 C   0  0  0  0  0  0  0  0  0  0  0  0
   20.5115   19.9155   23.4058 H   0  0  0  0  0  0  0  0  0  0  0  0
   20.8852   18.8882   24.7869 H   0  0  0  0  0  0  0  0  0  0  0  0
   20.5328   17.7745   22.9508 C   0  0  0  0  0  0  0  0  0  0  0  0
   19.8650   17.8090   22.0788 H   0  0  0  0  0  0  0  0  0  0  0  0
   20.2814   16.8496   23.4885 H   0  0  0  0  0  0  0  0  0  0  0  0
   22.0104   17.6859   22.4868 C   0  0  0  0  0  0  0  0  0  0  0  0
   22.6775   18.0998   23.2554 H   0  0  0  0  0  0  0  0  0  0  0  0
   22.2794   16.6238   22.4034 H   0  0  0  0  0  0  0  0  0  0  0  0
   22.3015   18.3484   21.1157 C   0  0  0  0  0  0  0  0  0  0  0  0
   21.7057   17.8559   20.3345 H   0  0  0  0  0  0  0  0  0  0  0  0
   23.3535   18.1640   20.8564 H   0  0  0  0  0  0  0  0  0  0  0  0
   22.0416   19.8703   21.0745 C   0  0  0  0  0  0  0  0  0  0  0  0
   22.5712   20.3854   21.8863 H   0  0  0  0  0  0  0  0  0  0  0  0
   20.9710   20.0943   21.1564 H   0  0  0  0  0  0  0  0  0  0  0  0
   22.3920   20.2933   20.1241 H   0  0  0  0  0  0  0  0  0  0  0  0
   16.9742   20.1251   25.6259 C   0  0  0  0  0  0  0  0  0  0  0  0
   16.3736   20.2166   24.7182 H   0  0  0  0  0  0  0  0  0  0  0  0
   16.7504   19.1792   26.1241 H   0  0  0  0  0  0  0  0  0  0  0  0
   16.7549   20.9573   26.2987 H   0  0  0  0  0  0  0  0  0  0  0  0
  1  2  1  0  0  0  0
  1  3  1  0  0  0  0
  1  4  1  0  0  0  0
  4  5  1  0  0  0  0
  4  6  1  0  0  0  0
  4  7  1  0  0  0  0
  7  8  1  0  0  0  0
  7  9  1  0  0  0  0
  7 10  1  0  0  0  0
 10 11  1  0  0  0  0
 10 12  1  0  0  0  0
 10 13  1  0  0  0  0
 13 14  1  0  0  0  0
 13 15  1  0  0  0  0
 13 16  1  0  0  0  0
 16 17  1  0  0  0  0
 16 18  1  0  0  0  0
 16 19  1  0  0  0  0
 19 20  1  0  0  0  0
 19 21  1  0  0  0  0
 19 22  1  0  0  0  0
  1 23  1  0  0  0  0
 23 24  1  0  0  0  0
 23 25  1  0  0  0  0
 23 26  1  0  0  0  0
M  END
> <VConfSearch Rank>
691

> <Conf_Id>
123

> <Delta U+W>
3.101

> <U+W>
24.943

> <U>
74.070

> <W>
-49.127

> <W(PB)>
-51.421

> <W(SA)>
2.295

> <Valence>
4.690

> <Coulomb>
69.115

> <VdW>
0.266

> <VdW6>
-6.809

> <VdW12>
7.075

> <Bond>
0.212

> <Angle>
1.133

> <Pdih>
3.345

> <Idih>
0.000

> <Tether>
0.000

$$$$
VeraChem MOL file


 26 25  0  0  0  0  0  0  0  0999 V2000     
   18.3120   19.7013   25.1563 N   0  3  0  0  0  0  0  0  0  0  0  0
   18.6574   19.2008   25.9899 H   0  0  0  0  0  0  0  0  0  0  0  0
   17.8462   18.9862   24.5777 H   0  0  0  0  0  0  0  0  0  0  0  0
   19.4735   20.3112   24.3955 C   0  0  0  0  0  0  0  0  0  0  0  0
   19.9347   21.0605   25.0439 H   0  0  0  0  0  0  0  0  0  0  0  0
   19.0705   20.8218   23.5172 H   0  0  0  0  0  0  0  0  0  0  0  0
   20.5409   19.2894   23.9565 C   0  0  0  0  0  0  0  0  0  0  0  0
   21.3812   19.8395   23.5184 H   0  0  0  0  0  0  0  0  0  0  0  0
   20.9386   18.7749   24.8412 H   0  0  0  0  0  0  0  0  0  0  0  0
   19.9931   18.2508   22.9444 C   0  0  0  0  0  0  0  0  0  0  0  0
   19.5063   18.7590   22.1004 H   0  0  0  0  0  0  0  0  0  0  0  0
   19.2090   17.6616   23.4382 H   0  0  0  0  0  0  0  0  0  0  0  0
   21.0761   17.2711   22.4214 C   0  0  0  0  0  0  0  0  0  0  0  0
   21.8575   17.1253   23.1799 H   0  0  0  0  0  0  0  0  0  0  0  0
   20.6093   16.2856   22.2855 H   0  0  0  0  0  0  0  0  0  0  0  0
   21.7153   17.6738   21.0676 C   0  0  0  0  0  0  0  0  0  0  0  0
   20.9383   17.7165   20.2916 H   0  0  0  0  0  0  0  0  0  0  0  0
   22.4085   16.8787   20.7594 H   0  0  0  0  0  0  0  0  0  0  0  0
   22.4821   19.0141   21.0985 C   0  0  0  0  0  0  0  0  0  0  0  0
   23.2287   19.0254   21.9030 H   0  0  0  0  0  0  0  0  0  0  0  0
   21.7998   19.8610   21.2417 H   0  0  0  0  0  0  0  0  0  0  0  0
   23.0095   19.1759   20.1495 H   0  0  0  0  0  0  0  0  0  0  0  0
   17.3256   20.7897   25.5563 C   0  0  0  0  0  0  0  0  0  0  0  0
   16.9508   21.2829   24.6567 H   0  0  0  0  0  0  0  0  0  0  0  0
   16.4949   20.3372   26.1024 H   0  0  0  0  0  0  0  0  0  0  0  0
   17.8330   21.5175   26.1933 H   0  0  0  0  0  0  0  0  0  0  0  0
  1  2  1  0  0  0  0
  1  3  1  0  0  0  0
  1  4  1  0  0  0  0
  4  5  1  0  0  0  0
  4  6  1  0  0  0  0
  4  7  1  0  0  0  0
  7  8  1  0  0  0  0
  7  9  1  0  0  0  0
  7 10  1  0  0  0  0
 10 11  1  0  0  0  0
 10 12  1  0  0  0  0
 10 13  1  0  0  0  0
 13 14  1  0  0  0  0
 13 15  1  0  0  0  0
 13 16  1  0  0  0  0
 16 17  1  0  0  0  0
 16 18  1  0  0  0  0
 16 19  1  0  0  0  0
 19 20  1  0  0  0  0
 19 21  1  0  0  0  0
 19 22  1  0  0  0  0
  1 23  1  0  0  0  0
 23 24  1  0  0  0  0
 23 25  1  0  0  0  0
 23 26  1  0  0  0  0
M  END
> <VConfSearch Rank>
692

> <Conf_Id>
111

> <Delta U+W>
3.383

> <U+W>
25.225

> <U>
74.516

> <W>
-49.292

> <W(PB)>
-51.558

> <W(SA)>
2.266

> <Valence>
4.842

> <Coulomb>
69.333

> <VdW>
0.342

> <VdW6>
-7.369

> <VdW12>
7.711

> <Bond>
0.232

> <Angle>
1.153

> <Pdih>
3.457

> <Idih>
0.000

> <Tether>
0.000

$$$$
VeraChem MOL file


 26 25  0  0  0  0  0  0  0  0999 V2000     
   18.7941   20.5522   21.8040 N   0  3  0  0  0  0  0  0  0  0  0  0
   17.9496   20.9794   22.2148 H   0  0  0  0  0  0  0  0  0  0  0  0
   18.6490   19.5335   21.8691 H   0  0  0  0  0  0  0  0  0  0  0  0
   20.0208   20.9521   22.6002 C   0  0  0  0  0  0  0  0  0  0  0  0
   20.1319   22.0361   22.5150 H   0  0  0  0  0  0  0  0  0  0  0  0
   20.8916   20.4850   22.1344 H   0  0  0  0  0  0  0  0  0  0  0  0
   19.9525   20.5603   24.0909 C   0  0  0  0  0  0  0  0  0  0  0  0
   20.8565   20.9296   24.5932 H   0  0  0  0  0  0  0  0  0  0  0  0
   19.1080   21.0823   24.5602 H   0  0  0  0  0  0  0  0  0  0  0  0
   19.8155   19.0371   24.3418 C   0  0  0  0  0  0  0  0  0  0  0  0
   18.8705   18.6713   23.9189 H   0  0  0  0  0  0  0  0  0  0  0  0
   19.7469   18.8763   25.4255 H   0  0  0  0  0  0  0  0  0  0  0  0
   20.9989   18.2152   23.7699 C   0  0  0  0  0  0  0  0  0  0  0  0
   21.0834   18.3934   22.6898 H   0  0  0  0  0  0  0  0  0  0  0  0
   21.9410   18.5637   24.2151 H   0  0  0  0  0  0  0  0  0  0  0  0
   20.8554   16.6901   23.9945 C   0  0  0  0  0  0  0  0  0  0  0  0
   21.6692   16.1783   23.4619 H   0  0  0  0  0  0  0  0  0  0  0  0
   19.9202   16.3333   23.5408 H   0  0  0  0  0  0  0  0  0  0  0  0
   20.9014   16.2784   25.4838 C   0  0  0  0  0  0  0  0  0  0  0  0
   20.0348   16.6618   26.0363 H   0  0  0  0  0  0  0  0  0  0  0  0
   21.8124   16.6520   25.9691 H   0  0  0  0  0  0  0  0  0  0  0  0
   20.8949   15.1849   25.5800 H   0  0  0  0  0  0  0  0  0  0  0  0
   18.9571   20.9772   20.3514 C   0  0  0  0  0  0  0  0  0  0  0  0
   18.0678   20.6823   19.7898 H   0  0  0  0  0  0  0  0  0  0  0  0
   19.0789   22.0617   20.3062 H   0  0  0  0  0  0  0  0  0  0  0  0
   19.8383   20.4879   19.9307 H   0  0  0  0  0  0  0  0  0  0  0  0
  1  2  1  0  0  0  0
  1  3  1  0  0  0  0
  1  4  1  0  0  0  0
  4  5  1  0  0  0  0
  4  6  1  0  0  0  0
  4  7  1  0  0  0  0
  7  8  1  0  0  0  0
  7  9  1  0  0  0  0
  7 10  1  0  0  0  0
 10 11  1  0  0  0  0
 10 12  1  0  0  0  0
 10 13  1  0  0  0  0
 13 14  1  0  0  0  0
 13 15  1  0  0  0  0
 13 16  1  0  0  0  0
 16 17  1  0  0  0  0
 16 18  1  0  0  0  0
 16 19  1  0  0  0  0
 19 20  1  0  0  0  0
 19 21  1  0  0  0  0
 19 22  1  0  0  0  0
  1 23  1  0  0  0  0
 23 24  1  0  0  0  0
 23 25  1  0  0  0  0
 23 26  1  0  0  0  0
M  END
> <VConfSearch Rank>
693

> <Conf_Id>
126

> <Delta U+W>
1.519

> <U+W>
23.361

> <U>
72.579

> <W>
-49.218

> <W(PB)>
-51.496

> <W(SA)>
2.279

> <Valence>
2.678

> <Coulomb>
69.622

> <VdW>
0.279

> <VdW6>
-7.328

> <VdW12>
7.608

> <Bond>
0.212

> <Angle>
0.911

> <Pdih>
1.555

> <Idih>
0.000

> <Tether>
0.000

$$$$
VeraChem MOL file


 26 25  0  0  0  0  0  0  0  0999 V2000     
   22.3986   19.5445   22.9363 N   0  3  0  0  0  0  0  0  0  0  0  0
   21.9969   19.2304   23.8325 H   0  0  0  0  0  0  0  0  0  0  0  0
   22.6951   20.5204   23.0923 H   0  0  0  0  0  0  0  0  0  0  0  0
   21.3443   19.4874   21.8483 C   0  0  0  0  0  0  0  0  0  0  0  0
   21.0593   18.4418   21.7102 H   0  0  0  0  0  0  0  0  0  0  0  0
   21.8057   19.8378   20.9215 H   0  0  0  0  0  0  0  0  0  0  0  0
   20.0909   20.3354   22.1484 C   0  0  0  0  0  0  0  0  0  0  0  0
   20.3829   21.3910   22.2268 H   0  0  0  0  0  0  0  0  0  0  0  0
   19.4088   20.2705   21.2902 H   0  0  0  0  0  0  0  0  0  0  0  0
   19.3340   19.9172   23.4346 C   0  0  0  0  0  0  0  0  0  0  0  0
   18.4844   20.5998   23.5656 H   0  0  0  0  0  0  0  0  0  0  0  0
   19.9785   20.0608   24.3119 H   0  0  0  0  0  0  0  0  0  0  0  0
   18.8222   18.4546   23.3936 C   0  0  0  0  0  0  0  0  0  0  0  0
   18.1550   18.3199   22.5311 H   0  0  0  0  0  0  0  0  0  0  0  0
   19.6683   17.7722   23.2388 H   0  0  0  0  0  0  0  0  0  0  0  0
   18.0879   18.0223   24.6862 C   0  0  0  0  0  0  0  0  0  0  0  0
   18.7547   18.1433   25.5514 H   0  0  0  0  0  0  0  0  0  0  0  0
   17.8631   16.9485   24.6205 H   0  0  0  0  0  0  0  0  0  0  0  0
   16.7696   18.7907   24.9338 C   0  0  0  0  0  0  0  0  0  0  0  0
   16.0983   18.7127   24.0688 H   0  0  0  0  0  0  0  0  0  0  0  0
   16.9525   19.8538   25.1330 H   0  0  0  0  0  0  0  0  0  0  0  0
   16.2431   18.3790   25.8046 H   0  0  0  0  0  0  0  0  0  0  0  0
   23.5893   18.6778   22.5512 C   0  0  0  0  0  0  0  0  0  0  0  0
   23.2557   17.6457   22.4229 H   0  0  0  0  0  0  0  0  0  0  0  0
   24.0152   19.0480   21.6161 H   0  0  0  0  0  0  0  0  0  0  0  0
   24.3397   18.7273   23.3434 H   0  0  0  0  0  0  0  0  0  0  0  0
  1  2  1  0  0  0  0
  1  3  1  0  0  0  0
  1  4  1  0  0  0  0
  4  5  1  0  0  0  0
  4  6  1  0  0  0  0
  4  7  1  0  0  0  0
  7  8  1  0  0  0  0
  7  9  1  0  0  0  0
  7 10  1  0  0  0  0
 10 11  1  0  0  0  0
 10 12  1  0  0  0  0
 10 13  1  0  0  0  0
 13 14  1  0  0  0  0
 13 15  1  0  0  0  0
 13 16  1  0  0  0  0
 16 17  1  0  0  0  0
 16 18  1  0  0  0  0
 16 19  1  0  0  0  0
 19 20  1  0  0  0  0
 19 21  1  0  0  0  0
 19 22  1  0  0  0  0
  1 23  1  0  0  0  0
 23 24  1  0  0  0  0
 23 25  1  0  0  0  0
 23 26  1  0  0  0  0
M  END
> <VConfSearch Rank>
694

> <Conf_Id>
134

> <Delta U+W>
1.464

> <U+W>
23.306

> <U>
72.579

> <W>
-49.273

> <W(PB)>
-51.540

> <W(SA)>
2.267

> <Valence>
2.677

> <Coulomb>
69.622

> <VdW>
0.280

> <VdW6>
-7.328

> <VdW12>
7.608

> <Bond>
0.212

> <Angle>
0.911

> <Pdih>
1.555

> <Idih>
0.000

> <Tether>
0.000

$$$$
VeraChem MOL file


 26 25  0  0  0  0  0  0  0  0999 V2000     
   21.4641   16.6598   23.7084 N   0  3  0  0  0  0  0  0  0  0  0  0
   20.7024   16.2427   23.1512 H   0  0  0  0  0  0  0  0  0  0  0  0
   21.2284   16.4556   24.6921 H   0  0  0  0  0  0  0  0  0  0  0  0
   21.5171   18.1576   23.4836 C   0  0  0  0  0  0  0  0  0  0  0  0
   21.7607   18.3305   22.4323 H   0  0  0  0  0  0  0  0  0  0  0  0
   22.3282   18.5599   24.0957 H   0  0  0  0  0  0  0  0  0  0  0  0
   20.1999   18.8730   23.8342 C   0  0  0  0  0  0  0  0  0  0  0  0
   19.3902   18.4486   23.2272 H   0  0  0  0  0  0  0  0  0  0  0  0
   19.9504   18.6839   24.8867 H   0  0  0  0  0  0  0  0  0  0  0  0
   20.3042   20.3967   23.5894 C   0  0  0  0  0  0  0  0  0  0  0  0
   20.5150   20.5890   22.5289 H   0  0  0  0  0  0  0  0  0  0  0  0
   21.1681   20.7886   24.1440 H   0  0  0  0  0  0  0  0  0  0  0  0
   19.0431   21.1844   24.0302 C   0  0  0  0  0  0  0  0  0  0  0  0
   18.9127   21.0718   25.1154 H   0  0  0  0  0  0  0  0  0  0  0  0
   19.2191   22.2553   23.8591 H   0  0  0  0  0  0  0  0  0  0  0  0
   17.7252   20.7747   23.3240 C   0  0  0  0  0  0  0  0  0  0  0  0
   16.9098   21.3977   23.7175 H   0  0  0  0  0  0  0  0  0  0  0  0
   17.4619   19.7400   23.5811 H   0  0  0  0  0  0  0  0  0  0  0  0
   17.7753   20.9341   21.7874 C   0  0  0  0  0  0  0  0  0  0  0  0
   18.0555   21.9573   21.5056 H   0  0  0  0  0  0  0  0  0  0  0  0
   16.7928   20.7216   21.3465 H   0  0  0  0  0  0  0  0  0  0  0  0
   18.4966   20.2426   21.3344 H   0  0  0  0  0  0  0  0  0  0  0  0
   22.8012   16.0328   23.3386 C   0  0  0  0  0  0  0  0  0  0  0  0
   23.5858   16.4654   23.9634 H   0  0  0  0  0  0  0  0  0  0  0  0
   22.7496   14.9545   23.5052 H   0  0  0  0  0  0  0  0  0  0  0  0
   23.0133   16.2337   22.2862 H   0  0  0  0  0  0  0  0  0  0  0  0
  1  2  1  0  0  0  0
  1  3  1  0  0  0  0
  1  4  1  0  0  0  0
  4  5  1  0  0  0  0
  4  6  1  0  0  0  0
  4  7  1  0  0  0  0
  7  8  1  0  0  0  0
  7  9  1  0  0  0  0
  7 10  1  0  0  0  0
 10 11  1  0  0  0  0
 10 12  1  0  0  0  0
 10 13  1  0  0  0  0
 13 14  1  0  0  0  0
 13 15  1  0  0  0  0
 13 16  1  0  0  0  0
 16 17  1  0  0  0  0
 16 18  1  0  0  0  0
 16 19  1  0  0  0  0
 19 20  1  0  0  0  0
 19 21  1  0  0  0  0
 19 22  1  0  0  0  0
  1 23  1  0  0  0  0
 23 24  1  0  0  0  0
 23 25  1  0  0  0  0
 23 26  1  0  0  0  0
M  END
> <VConfSearch Rank>
695

> <Conf_Id>
30

> <Delta U+W>
0.910

> <U+W>
22.752

> <U>
71.870

> <W>
-49.118

> <W(PB)>
-51.409

> <W(SA)>
2.290

> <Valence>
2.682

> <Coulomb>
68.933

> <VdW>
0.255

> <VdW6>
-6.833

> <VdW12>
7.088

> <Bond>
0.205

> <Angle>
1.003

> <Pdih>
1.473

> <Idih>
0.000

> <Tether>
0.000

$$$$
VeraChem MOL file


 26 25  0  0  0  0  0  0  0  0999 V2000     
   20.2052   18.4894   20.5927 N   0  3  0  0  0  0  0  0  0  0  0  0
   20.1472   17.4592   20.6037 H   0  0  0  0  0  0  0  0  0  0  0  0
   21.2063   18.7094   20.7118 H   0  0  0  0  0  0  0  0  0  0  0  0
   19.4019   19.0705   21.7389 C   0  0  0  0  0  0  0  0  0  0  0  0
   18.3529   18.8087   21.5795 H   0  0  0  0  0  0  0  0  0  0  0  0
   19.4957   20.1585   21.6964 H   0  0  0  0  0  0  0  0  0  0  0  0
   19.8578   18.5652   23.1197 C   0  0  0  0  0  0  0  0  0  0  0  0
   19.7772   17.4706   23.1531 H   0  0  0  0  0  0  0  0  0  0  0  0
   20.9164   18.8173   23.2608 H   0  0  0  0  0  0  0  0  0  0  0  0
   19.0087   19.1847   24.2545 C   0  0  0  0  0  0  0  0  0  0  0  0
   17.9465   18.9881   24.0530 H   0  0  0  0  0  0  0  0  0  0  0  0
   19.1192   20.2773   24.2471 H   0  0  0  0  0  0  0  0  0  0  0  0
   19.3501   18.6272   25.6608 C   0  0  0  0  0  0  0  0  0  0  0  0
   18.6763   19.0889   26.3957 H   0  0  0  0  0  0  0  0  0  0  0  0
   19.1259   17.5517   25.6829 H   0  0  0  0  0  0  0  0  0  0  0  0
   20.8148   18.8413   26.1212 C   0  0  0  0  0  0  0  0  0  0  0  0
   21.5029   18.2847   25.4708 H   0  0  0  0  0  0  0  0  0  0  0  0
   20.9330   18.4066   27.1236 H   0  0  0  0  0  0  0  0  0  0  0  0
   21.2327   20.3285   26.1719 C   0  0  0  0  0  0  0  0  0  0  0  0
   21.2445   20.7776   25.1711 H   0  0  0  0  0  0  0  0  0  0  0  0
   22.2420   20.4303   26.5912 H   0  0  0  0  0  0  0  0  0  0  0  0
   20.5473   20.9098   26.8022 H   0  0  0  0  0  0  0  0  0  0  0  0
   19.6915   19.0390   19.2691 C   0  0  0  0  0  0  0  0  0  0  0  0
   20.2782   18.6127   18.4523 H   0  0  0  0  0  0  0  0  0  0  0  0
   18.6408   18.7656   19.1503 H   0  0  0  0  0  0  0  0  0  0  0  0
   19.7935   20.1265   19.2680 H   0  0  0  0  0  0  0  0  0  0  0  0
  1  2  1  0  0  0  0
  1  3  1  0  0  0  0
  1  4  1  0  0  0  0
  4  5  1  0  0  0  0
  4  6  1  0  0  0  0
  4  7  1  0  0  0  0
  7  8  1  0  0  0  0
  7  9  1  0  0  0  0
  7 10  1  0  0  0  0
 10 11  1  0  0  0  0
 10 12  1  0  0  0  0
 10 13  1  0  0  0  0
 13 14  1  0  0  0  0
 13 15  1  0  0  0  0
 13 16  1  0  0  0  0
 16 17  1  0  0  0  0
 16 18  1  0  0  0  0
 16 19  1  0  0  0  0
 19 20  1  0  0  0  0
 19 21  1  0  0  0  0
 19 22  1  0  0  0  0
  1 23  1  0  0  0  0
 23 24  1  0  0  0  0
 23 25  1  0  0  0  0
 23 26  1  0  0  0  0
M  END
> <VConfSearch Rank>
696

> <Conf_Id>
29

> <Delta U+W>
0.886

> <U+W>
22.729

> <U>
71.870

> <W>
-49.141

> <W(PB)>
-51.404

> <W(SA)>
2.262

> <Valence>
2.682

> <Coulomb>
68.933

> <VdW>
0.255

> <VdW6>
-6.833

> <VdW12>
7.088

> <Bond>
0.205

> <Angle>
1.003

> <Pdih>
1.473

> <Idih>
0.000

> <Tether>
0.000

$$$$
VeraChem MOL file


 26 25  0  0  0  0  0  0  0  0999 V2000     
   22.0489   19.5973   21.7335 N   0  3  0  0  0  0  0  0  0  0  0  0
   22.8307   18.9248   21.7727 H   0  0  0  0  0  0  0  0  0  0  0  0
   22.2838   20.3318   22.4190 H   0  0  0  0  0  0  0  0  0  0  0  0
   20.7526   18.9149   22.1211 C   0  0  0  0  0  0  0  0  0  0  0  0
   20.5471   18.1384   21.3800 H   0  0  0  0  0  0  0  0  0  0  0  0
   19.9554   19.6603   22.0697 H   0  0  0  0  0  0  0  0  0  0  0  0
   20.7898   18.2906   23.5289 C   0  0  0  0  0  0  0  0  0  0  0  0
   21.6163   17.5696   23.5809 H   0  0  0  0  0  0  0  0  0  0  0  0
   21.0110   19.0670   24.2724 H   0  0  0  0  0  0  0  0  0  0  0  0
   19.4706   17.5666   23.8960 C   0  0  0  0  0  0  0  0  0  0  0  0
   19.5679   17.1294   24.8987 H   0  0  0  0  0  0  0  0  0  0  0  0
   19.3315   16.7157   23.2149 H   0  0  0  0  0  0  0  0  0  0  0  0
   18.2005   18.4582   23.8395 C   0  0  0  0  0  0  0  0  0  0  0  0
   18.0108   18.7576   22.7999 H   0  0  0  0  0  0  0  0  0  0  0  0
   17.3331   17.8515   24.1340 H   0  0  0  0  0  0  0  0  0  0  0  0
   18.2463   19.7284   24.7266 C   0  0  0  0  0  0  0  0  0  0  0  0
   17.3056   20.2811   24.5953 H   0  0  0  0  0  0  0  0  0  0  0  0
   19.0414   20.4035   24.3829 H   0  0  0  0  0  0  0  0  0  0  0  0
   18.4365   19.4203   26.2292 C   0  0  0  0  0  0  0  0  0  0  0  0
   18.3767   20.3425   26.8215 H   0  0  0  0  0  0  0  0  0  0  0  0
   19.4145   18.9640   26.4260 H   0  0  0  0  0  0  0  0  0  0  0  0
   17.6586   18.7366   26.5931 H   0  0  0  0  0  0  0  0  0  0  0  0
   21.9242   20.1904   20.3370 C   0  0  0  0  0  0  0  0  0  0  0  0
   22.8643   20.6784   20.0699 H   0  0  0  0  0  0  0  0  0  0  0  0
   21.7086   19.3906   19.6251 H   0  0  0  0  0  0  0  0  0  0  0  0
   21.1134   20.9220   20.3286 H   0  0  0  0  0  0  0  0  0  0  0  0
  1  2  1  0  0  0  0
  1  3  1  0  0  0  0
  1  4  1  0  0  0  0
  4  5  1  0  0  0  0
  4  6  1  0  0  0  0
  4  7  1  0  0  0  0
  7  8  1  0  0  0  0
  7  9  1  0  0  0  0
  7 10  1  0  0  0  0
 10 11  1  0  0  0  0
 10 12  1  0  0  0  0
 10 13  1  0  0  0  0
 13 14  1  0  0  0  0
 13 15  1  0  0  0  0
 13 16  1  0  0  0  0
 16 17  1  0  0  0  0
 16 18  1  0  0  0  0
 16 19  1  0  0  0  0
 19 20  1  0  0  0  0
 19 21  1  0  0  0  0
 19 22  1  0  0  0  0
  1 23  1  0  0  0  0
 23 24  1  0  0  0  0
 23 25  1  0  0  0  0
 23 26  1  0  0  0  0
M  END
> <VConfSearch Rank>
697

> <Conf_Id>
82

> <Delta U+W>
1.026

> <U+W>
22.868

> <U>
72.455

> <W>
-49.586

> <W(PB)>
-51.821

> <W(SA)>
2.234

> <Valence>
2.908

> <Coulomb>
69.435

> <VdW>
0.112

> <VdW6>
-7.765

> <VdW12>
7.877

> <Bond>
0.233

> <Angle>
1.170

> <Pdih>
1.506

> <Idih>
0.000

> <Tether>
0.000

$$$$
VeraChem MOL file


 26 25  0  0  0  0  0  0  0  0999 V2000     
   18.6071   17.1771   22.2821 N   0  3  0  0  0  0  0  0  0  0  0  0
   17.8714   17.5239   22.9169 H   0  0  0  0  0  0  0  0  0  0  0  0
   18.8154   16.2181   22.6010 H   0  0  0  0  0  0  0  0  0  0  0  0
   19.8446   18.0446   22.3916 C   0  0  0  0  0  0  0  0  0  0  0  0
   19.5798   19.0477   22.0487 H   0  0  0  0  0  0  0  0  0  0  0  0
   20.6011   17.6376   21.7160 H   0  0  0  0  0  0  0  0  0  0  0  0
   20.4128   18.1181   23.8217 C   0  0  0  0  0  0  0  0  0  0  0  0
   19.6488   18.5126   24.5036 H   0  0  0  0  0  0  0  0  0  0  0  0
   20.6422   17.1024   24.1701 H   0  0  0  0  0  0  0  0  0  0  0  0
   21.6972   18.9793   23.9103 C   0  0  0  0  0  0  0  0  0  0  0  0
   22.4882   18.4987   23.3182 H   0  0  0  0  0  0  0  0  0  0  0  0
   22.0608   18.9762   24.9466 H   0  0  0  0  0  0  0  0  0  0  0  0
   21.5344   20.4442   23.4217 C   0  0  0  0  0  0  0  0  0  0  0  0
   22.4946   20.9638   23.5460 H   0  0  0  0  0  0  0  0  0  0  0  0
   21.3352   20.4487   22.3416 H   0  0  0  0  0  0  0  0  0  0  0  0
   20.4285   21.2597   24.1389 C   0  0  0  0  0  0  0  0  0  0  0  0
   19.4423   20.8188   23.9408 H   0  0  0  0  0  0  0  0  0  0  0  0
   20.3993   22.2684   23.7036 H   0  0  0  0  0  0  0  0  0  0  0  0
   20.6486   21.3825   25.6638 C   0  0  0  0  0  0  0  0  0  0  0  0
   20.5773   20.4070   26.1608 H   0  0  0  0  0  0  0  0  0  0  0  0
   19.8893   22.0373   26.1106 H   0  0  0  0  0  0  0  0  0  0  0  0
   21.6344   21.8108   25.8868 H   0  0  0  0  0  0  0  0  0  0  0  0
   18.1090   17.1650   20.8436 C   0  0  0  0  0  0  0  0  0  0  0  0
   18.8917   16.7638   20.1959 H   0  0  0  0  0  0  0  0  0  0  0  0
   17.2180   16.5366   20.7783 H   0  0  0  0  0  0  0  0  0  0  0  0
   17.8640   18.1851   20.5398 H   0  0  0  0  0  0  0  0  0  0  0  0
  1  2  1  0  0  0  0
  1  3  1  0  0  0  0
  1  4  1  0  0  0  0
  4  5  1  0  0  0  0
  4  6  1  0  0  0  0
  4  7  1  0  0  0  0
  7  8  1  0  0  0  0
  7  9  1  0  0  0  0
  7 10  1  0  0  0  0
 10 11  1  0  0  0  0
 10 12  1  0  0  0  0
 10 13  1  0  0  0  0
 13 14  1  0  0  0  0
 13 15  1  0  0  0  0
 13 16  1  0  0  0  0
 16 17  1  0  0  0  0
 16 18  1  0  0  0  0
 16 19  1  0  0  0  0
 19 20  1  0  0  0  0
 19 21  1  0  0  0  0
 19 22  1  0  0  0  0
  1 23  1  0  0  0  0
 23 24  1  0  0  0  0
 23 25  1  0  0  0  0
 23 26  1  0  0  0  0
M  END
> <VConfSearch Rank>
698

> <Conf_Id>
71

> <Delta U+W>
1.096

> <U+W>
22.938

> <U>
72.455

> <W>
-49.517

> <W(PB)>
-51.795

> <W(SA)>
2.278

> <Valence>
2.908

> <Coulomb>
69.435

> <VdW>
0.112

> <VdW6>
-7.766

> <VdW12>
7.877

> <Bond>
0.233

> <Angle>
1.170

> <Pdih>
1.506

> <Idih>
0.000

> <Tether>
0.000

$$$$
VeraChem MOL file


 26 25  0  0  0  0  0  0  0  0999 V2000     
   20.4084   16.6980   23.1976 N   0  3  0  0  0  0  0  0  0  0  0  0
   19.4934   17.1343   23.0101 H   0  0  0  0  0  0  0  0  0  0  0  0
   20.2023   15.8865   23.8015 H   0  0  0  0  0  0  0  0  0  0  0  0
   21.3058   17.6736   23.9424 C   0  0  0  0  0  0  0  0  0  0  0  0
   22.2682   17.1817   24.1045 H   0  0  0  0  0  0  0  0  0  0  0  0
   20.8533   17.8519   24.9207 H   0  0  0  0  0  0  0  0  0  0  0  0
   21.5311   19.0294   23.2350 C   0  0  0  0  0  0  0  0  0  0  0  0
   22.1831   19.6490   23.8647 H   0  0  0  0  0  0  0  0  0  0  0  0
   22.0832   18.8644   22.3008 H   0  0  0  0  0  0  0  0  0  0  0  0
   20.2279   19.8093   22.9272 C   0  0  0  0  0  0  0  0  0  0  0  0
   19.6028   19.2316   22.2334 H   0  0  0  0  0  0  0  0  0  0  0  0
   20.5005   20.7309   22.3969 H   0  0  0  0  0  0  0  0  0  0  0  0
   19.4141   20.1640   24.1978 C   0  0  0  0  0  0  0  0  0  0  0  0
   19.1662   19.2454   24.7455 H   0  0  0  0  0  0  0  0  0  0  0  0
   20.0314   20.7699   24.8753 H   0  0  0  0  0  0  0  0  0  0  0  0
   18.0937   20.9132   23.8945 C   0  0  0  0  0  0  0  0  0  0  0  0
   17.5288   21.0234   24.8308 H   0  0  0  0  0  0  0  0  0  0  0  0
   17.4659   20.3060   23.2274 H   0  0  0  0  0  0  0  0  0  0  0  0
   18.3068   22.3138   23.2759 C   0  0  0  0  0  0  0  0  0  0  0  0
   18.7557   22.2506   22.2771 H   0  0  0  0  0  0  0  0  0  0  0  0
   18.9589   22.9300   23.9084 H   0  0  0  0  0  0  0  0  0  0  0  0
   17.3478   22.8377   23.1728 H   0  0  0  0  0  0  0  0  0  0  0  0
   21.0598   16.2290   21.9018 C   0  0  0  0  0  0  0  0  0  0  0  0
   20.4015   15.5088   21.4111 H   0  0  0  0  0  0  0  0  0  0  0  0
   21.2184   17.0878   21.2464 H   0  0  0  0  0  0  0  0  0  0  0  0
   22.0171   15.7565   22.1323 H   0  0  0  0  0  0  0  0  0  0  0  0
  1  2  1  0  0  0  0
  1  3  1  0  0  0  0
  1  4  1  0  0  0  0
  4  5  1  0  0  0  0
  4  6  1  0  0  0  0
  4  7  1  0  0  0  0
  7  8  1  0  0  0  0
  7  9  1  0  0  0  0
  7 10  1  0  0  0  0
 10 11  1  0  0  0  0
 10 12  1  0  0  0  0
 10 13  1  0  0  0  0
 13 14  1  0  0  0  0
 13 15  1  0  0  0  0
 13 16  1  0  0  0  0
 16 17  1  0  0  0  0
 16 18  1  0  0  0  0
 16 19  1  0  0  0  0
 19 20  1  0  0  0  0
 19 21  1  0  0  0  0
 19 22  1  0  0  0  0
  1 23  1  0  0  0  0
 23 24  1  0  0  0  0
 23 25  1  0  0  0  0
 23 26  1  0  0  0  0
M  END
> <VConfSearch Rank>
699

> <Conf_Id>
84

> <Delta U+W>
1.456

> <U+W>
23.298

> <U>
73.042

> <W>
-49.744

> <W(PB)>
-51.966

> <W(SA)>
2.222

> <Valence>
2.938

> <Coulomb>
69.625

> <VdW>
0.478

> <VdW6>
-8.182

> <VdW12>
8.660

> <Bond>
0.253

> <Angle>
1.038

> <Pdih>
1.647

> <Idih>
0.000

> <Tether>
0.000

$$$$
VeraChem MOL file


 26 25  0  0  0  0  0  0  0  0999 V2000     
   20.5562   21.4116   23.0801 N   0  3  0  0  0  0  0  0  0  0  0  0
   20.3903   20.9227   23.9726 H   0  0  0  0  0  0  0  0  0  0  0  0
   19.8673   22.1793   23.0524 H   0  0  0  0  0  0  0  0  0  0  0  0
   20.3268   20.4632   21.9197 C   0  0  0  0  0  0  0  0  0  0  0  0
   21.0750   19.6694   21.9808 H   0  0  0  0  0  0  0  0  0  0  0  0
   20.4998   21.0218   20.9963 H   0  0  0  0  0  0  0  0  0  0  0  0
   18.9132   19.8463   21.8879 C   0  0  0  0  0  0  0  0  0  0  0  0
   18.1729   20.6492   21.7733 H   0  0  0  0  0  0  0  0  0  0  0  0
   18.8240   19.2186   20.9913 H   0  0  0  0  0  0  0  0  0  0  0  0
   18.5641   19.0016   23.1392 C   0  0  0  0  0  0  0  0  0  0  0  0
   17.5402   18.6188   23.0271 H   0  0  0  0  0  0  0  0  0  0  0  0
   18.5531   19.6415   24.0317 H   0  0  0  0  0  0  0  0  0  0  0  0
   19.5289   17.8115   23.3602 C   0  0  0  0  0  0  0  0  0  0  0  0
   19.5548   17.1875   22.4562 H   0  0  0  0  0  0  0  0  0  0  0  0
   20.5508   18.1800   23.5215 H   0  0  0  0  0  0  0  0  0  0  0  0
   19.1067   16.9471   24.5692 C   0  0  0  0  0  0  0  0  0  0  0  0
   18.0884   16.5637   24.4143 H   0  0  0  0  0  0  0  0  0  0  0  0
   19.0771   17.5667   25.4765 H   0  0  0  0  0  0  0  0  0  0  0  0
   20.0713   15.7623   24.7900 C   0  0  0  0  0  0  0  0  0  0  0  0
   20.0968   15.1049   23.9112 H   0  0  0  0  0  0  0  0  0  0  0  0
   19.7549   15.1603   25.6517 H   0  0  0  0  0  0  0  0  0  0  0  0
   21.0928   16.1151   24.9828 H   0  0  0  0  0  0  0  0  0  0  0  0
   21.9744   21.9622   23.0278 C   0  0  0  0  0  0  0  0  0  0  0  0
   22.1159   22.5006   22.0881 H   0  0  0  0  0  0  0  0  0  0  0  0
   22.1260   22.6422   23.8690 H   0  0  0  0  0  0  0  0  0  0  0  0
   22.6837   21.1340   23.0903 H   0  0  0  0  0  0  0  0  0  0  0  0
  1  2  1  0  0  0  0
  1  3  1  0  0  0  0
  1  4  1  0  0  0  0
  4  5  1  0  0  0  0
  4  6  1  0  0  0  0
  4  7  1  0  0  0  0
  7  8  1  0  0  0  0
  7  9  1  0  0  0  0
  7 10  1  0  0  0  0
 10 11  1  0  0  0  0
 10 12  1  0  0  0  0
 10 13  1  0  0  0  0
 13 14  1  0  0  0  0
 13 15  1  0  0  0  0
 13 16  1  0  0  0  0
 16 17  1  0  0  0  0
 16 18  1  0  0  0  0
 16 19  1  0  0  0  0
 19 20  1  0  0  0  0
 19 21  1  0  0  0  0
 19 22  1  0  0  0  0
  1 23  1  0  0  0  0
 23 24  1  0  0  0  0
 23 25  1  0  0  0  0
 23 26  1  0  0  0  0
M  END
> <VConfSearch Rank>
700

> <Conf_Id>
73

> <Delta U+W>
0.884

> <U+W>
22.726

> <U>
71.905

> <W>
-49.179

> <W(PB)>
-51.494

> <W(SA)>
2.315

> <Valence>
2.125

> <Coulomb>
69.686

> <VdW>
0.093

> <VdW6>
-6.766

> <VdW12>
6.859

> <Bond>
0.169

> <Angle>
0.621

> <Pdih>
1.336

> <Idih>
0.000

> <Tether>
0.000

$$$$
VeraChem MOL file


 26 25  0  0  0  0  0  0  0  0999 V2000     
   17.7657   20.9505   21.9691 N   0  3  0  0  0  0  0  0  0  0  0  0
   18.2829   21.8370   22.0760 H   0  0  0  0  0  0  0  0  0  0  0  0
   17.1214   20.9099   22.7742 H   0  0  0  0  0  0  0  0  0  0  0  0
   18.7247   19.7776   22.0071 C   0  0  0  0  0  0  0  0  0  0  0  0
   19.3922   19.8623   21.1458 H   0  0  0  0  0  0  0  0  0  0  0  0
   18.1384   18.8615   21.8995 H   0  0  0  0  0  0  0  0  0  0  0  0
   19.5552   19.7119   23.3017 C   0  0  0  0  0  0  0  0  0  0  0  0
   20.1299   20.6410   23.4142 H   0  0  0  0  0  0  0  0  0  0  0  0
   18.8802   19.6435   24.1653 H   0  0  0  0  0  0  0  0  0  0  0  0
   20.5167   18.5028   23.2957 C   0  0  0  0  0  0  0  0  0  0  0  0
   21.1867   18.5721   22.4272 H   0  0  0  0  0  0  0  0  0  0  0  0
   19.9384   17.5758   23.1773 H   0  0  0  0  0  0  0  0  0  0  0  0
   21.3561   18.4265   24.5914 C   0  0  0  0  0  0  0  0  0  0  0  0
   21.9345   19.3533   24.7099 H   0  0  0  0  0  0  0  0  0  0  0  0
   20.6864   18.3572   25.4598 H   0  0  0  0  0  0  0  0  0  0  0  0
   22.3176   17.2171   24.5851 C   0  0  0  0  0  0  0  0  0  0  0  0
   22.9915   17.2831   23.7194 H   0  0  0  0  0  0  0  0  0  0  0  0
   21.7436   16.2871   24.4693 H   0  0  0  0  0  0  0  0  0  0  0  0
   23.1542   17.1442   25.8804 C   0  0  0  0  0  0  0  0  0  0  0  0
   23.8303   16.2797   25.8572 H   0  0  0  0  0  0  0  0  0  0  0  0
   22.5084   17.0429   26.7624 H   0  0  0  0  0  0  0  0  0  0  0  0
   23.7662   18.0468   26.0067 H   0  0  0  0  0  0  0  0  0  0  0  0
   16.9869   20.9409   20.6609 C   0  0  0  0  0  0  0  0  0  0  0  0
   16.4222   20.0090   20.5859 H   0  0  0  0  0  0  0  0  0  0  0  0
   16.3003   21.7904   20.6466 H   0  0  0  0  0  0  0  0  0  0  0  0
   17.6866   21.0181   19.8258 H   0  0  0  0  0  0  0  0  0  0  0  0
  1  2  1  0  0  0  0
  1  3  1  0  0  0  0
  1  4  1  0  0  0  0
  4  5  1  0  0  0  0
  4  6  1  0  0  0  0
  4  7  1  0  0  0  0
  7  8  1  0  0  0  0
  7  9  1  0  0  0  0
  7 10  1  0  0  0  0
 10 11  1  0  0  0  0
 10 12  1  0  0  0  0
 10 13  1  0  0  0  0
 13 14  1  0  0  0  0
 13 15  1  0  0  0  0
 13 16  1  0  0  0  0
 16 17  1  0  0  0  0
 16 18  1  0  0  0  0
 16 19  1  0  0  0  0
 19 20  1  0  0  0  0
 19 21  1  0  0  0  0
 19 22  1  0  0  0  0
  1 23  1  0  0  0  0
 23 24  1  0  0  0  0
 23 25  1  0  0  0  0
 23 26  1  0  0  0  0
M  END
> <VConfSearch Rank>
701

> <Conf_Id>
11

> <Delta U+W>
0.000

> <U+W>
21.842

> <U>
70.357

> <W>
-48.515

> <W(PB)>
-50.856

> <W(SA)>
2.341

> <Valence>
1.714

> <Coulomb>
68.480

> <VdW>
0.163

> <VdW6>
-5.268

> <VdW12>
5.431

> <Bond>
0.126

> <Angle>
0.350

> <Pdih>
1.238

> <Idih>
0.000

> <Tether>
0.000

$$$$
VeraChem MOL file


 26 25  0  0  0  0  0  0  0  0999 V2000     
   17.1391   18.6786   25.0268 N   0  3  0  0  0  0  0  0  0  0  0  0
   16.8507   18.4178   25.9833 H   0  0  0  0  0  0  0  0  0  0  0  0
   16.7729   17.9256   24.4240 H   0  0  0  0  0  0  0  0  0  0  0  0
   18.6560   18.7240   24.9480 C   0  0  0  0  0  0  0  0  0  0  0  0
   19.0317   17.7967   25.3879 H   0  0  0  0  0  0  0  0  0  0  0  0
   19.0004   19.5565   25.5667 H   0  0  0  0  0  0  0  0  0  0  0  0
   19.2190   18.8644   23.5190 C   0  0  0  0  0  0  0  0  0  0  0  0
   18.8280   18.0521   22.8922 H   0  0  0  0  0  0  0  0  0  0  0  0
   18.8749   19.8077   23.0754 H   0  0  0  0  0  0  0  0  0  0  0  0
   20.7633   18.8268   23.5156 C   0  0  0  0  0  0  0  0  0  0  0  0
   21.1077   17.8833   23.9615 H   0  0  0  0  0  0  0  0  0  0  0  0
   21.1504   19.6372   24.1490 H   0  0  0  0  0  0  0  0  0  0  0  0
   21.3408   18.9653   22.0884 C   0  0  0  0  0  0  0  0  0  0  0  0
   20.9536   18.1552   21.4550 H   0  0  0  0  0  0  0  0  0  0  0  0
   20.9968   19.9089   21.6425 H   0  0  0  0  0  0  0  0  0  0  0  0
   22.8854   18.9276   22.0853 C   0  0  0  0  0  0  0  0  0  0  0  0
   23.2346   17.9843   22.5282 H   0  0  0  0  0  0  0  0  0  0  0  0
   23.2778   19.7378   22.7159 H   0  0  0  0  0  0  0  0  0  0  0  0
   23.4585   19.0662   20.6587 C   0  0  0  0  0  0  0  0  0  0  0  0
   24.5557   19.0373   20.6771 H   0  0  0  0  0  0  0  0  0  0  0  0
   23.1544   20.0169   20.2016 H   0  0  0  0  0  0  0  0  0  0  0  0
   23.1110   18.2496   20.0125 H   0  0  0  0  0  0  0  0  0  0  0  0
   16.5254   20.0223   24.6497 C   0  0  0  0  0  0  0  0  0  0  0  0
   16.7815   20.2595   23.6151 H   0  0  0  0  0  0  0  0  0  0  0  0
   15.4399   19.9610   24.7540 H   0  0  0  0  0  0  0  0  0  0  0  0
   16.9167   20.7948   25.3152 H   0  0  0  0  0  0  0  0  0  0  0  0
  1  2  1  0  0  0  0
  1  3  1  0  0  0  0
  1  4  1  0  0  0  0
  4  5  1  0  0  0  0
  4  6  1  0  0  0  0
  4  7  1  0  0  0  0
  7  8  1  0  0  0  0
  7  9  1  0  0  0  0
  7 10  1  0  0  0  0
 10 11  1  0  0  0  0
 10 12  1  0  0  0  0
 10 13  1  0  0  0  0
 13 14  1  0  0  0  0
 13 15  1  0  0  0  0
 13 16  1  0  0  0  0
 16 17  1  0  0  0  0
 16 18  1  0  0  0  0
 16 19  1  0  0  0  0
 19 20  1  0  0  0  0
 19 21  1  0  0  0  0
 19 22  1  0  0  0  0
  1 23  1  0  0  0  0
 23 24  1  0  0  0  0
 23 25  1  0  0  0  0
 23 26  1  0  0  0  0
M  END
> <VConfSearch Rank>
702

> <Conf_Id>
102

> <Delta U+W>
0.121

> <U+W>
21.963

> <U>
70.745

> <W>
-48.782

> <W(PB)>
-51.111

> <W(SA)>
2.329

> <Valence>
1.993

> <Coulomb>
68.323

> <VdW>
0.429

> <VdW6>
-5.973

> <VdW12>
6.402

> <Bond>
0.161

> <Angle>
0.472

> <Pdih>
1.360

> <Idih>
0.000

> <Tether>
0.000

$$$$
VeraChem MOL file


 26 25  0  0  0  0  0  0  0  0999 V2000     
   17.4950   20.5015   24.8594 N   0  3  0  0  0  0  0  0  0  0  0  0
   17.0676   20.8658   23.9939 H   0  0  0  0  0  0  0  0  0  0  0  0
   17.3331   21.2366   25.5661 H   0  0  0  0  0  0  0  0  0  0  0  0
   18.9891   20.3040   24.6648 C   0  0  0  0  0  0  0  0  0  0  0  0
   19.3958   19.8817   25.5871 H   0  0  0  0  0  0  0  0  0  0  0  0
   19.4312   21.2932   24.5212 H   0  0  0  0  0  0  0  0  0  0  0  0
   19.3660   19.4084   23.4671 C   0  0  0  0  0  0  0  0  0  0  0  0
   18.9546   18.4012   23.6126 H   0  0  0  0  0  0  0  0  0  0  0  0
   18.9118   19.8130   22.5529 H   0  0  0  0  0  0  0  0  0  0  0  0
   20.8980   19.3184   23.2908 C   0  0  0  0  0  0  0  0  0  0  0  0
   21.3492   18.9193   24.2100 H   0  0  0  0  0  0  0  0  0  0  0  0
   21.3101   20.3270   23.1469 H   0  0  0  0  0  0  0  0  0  0  0  0
   21.2896   18.4242   22.0923 C   0  0  0  0  0  0  0  0  0  0  0  0
   20.8779   17.4155   22.2362 H   0  0  0  0  0  0  0  0  0  0  0  0
   20.8382   18.8230   21.1732 H   0  0  0  0  0  0  0  0  0  0  0  0
   22.8219   18.3344   21.9162 C   0  0  0  0  0  0  0  0  0  0  0  0
   23.2780   17.9338   22.8324 H   0  0  0  0  0  0  0  0  0  0  0  0
   23.2383   19.3409   21.7692 H   0  0  0  0  0  0  0  0  0  0  0  0
   23.2090   17.4405   20.7187 C   0  0  0  0  0  0  0  0  0  0  0  0
   22.8357   16.4169   20.8529 H   0  0  0  0  0  0  0  0  0  0  0  0
   24.3002   17.3893   20.6099 H   0  0  0  0  0  0  0  0  0  0  0  0
   22.7955   17.8350   19.7814 H   0  0  0  0  0  0  0  0  0  0  0  0
   16.8184   19.2067   25.2953 C   0  0  0  0  0  0  0  0  0  0  0  0
   17.2782   18.8559   26.2217 H   0  0  0  0  0  0  0  0  0  0  0  0
   15.7556   19.3973   25.4605 H   0  0  0  0  0  0  0  0  0  0  0  0
   16.9388   18.4544   24.5133 H   0  0  0  0  0  0  0  0  0  0  0  0
  1  2  1  0  0  0  0
  1  3  1  0  0  0  0
  1  4  1  0  0  0  0
  4  5  1  0  0  0  0
  4  6  1  0  0  0  0
  4  7  1  0  0  0  0
  7  8  1  0  0  0  0
  7  9  1  0  0  0  0
  7 10  1  0  0  0  0
 10 11  1  0  0  0  0
 10 12  1  0  0  0  0
 10 13  1  0  0  0  0
 13 14  1  0  0  0  0
 13 15  1  0  0  0  0
 13 16  1  0  0  0  0
 16 17  1  0  0  0  0
 16 18  1  0  0  0  0
 16 19  1  0  0  0  0
 19 20  1  0  0  0  0
 19 21  1  0  0  0  0
 19 22  1  0  0  0  0
  1 23  1  0  0  0  0
 23 24  1  0  0  0  0
 23 25  1  0  0  0  0
 23 26  1  0  0  0  0
M  END
> <VConfSearch Rank>
703

> <Conf_Id>
37

> <Delta U+W>
0.125

> <U+W>
21.967

> <U>
70.745

> <W>
-48.778

> <W(PB)>
-51.115

> <W(SA)>
2.337

> <Valence>
1.993

> <Coulomb>
68.323

> <VdW>
0.429

> <VdW6>
-5.973

> <VdW12>
6.403

> <Bond>
0.161

> <Angle>
0.472

> <Pdih>
1.360

> <Idih>
0.000

> <Tether>
0.000

$$$$
VeraChem MOL file


 26 25  0  0  0  0  0  0  0  0999 V2000     
   18.0542   18.1128   21.1997 N   0  3  0  0  0  0  0  0  0  0  0  0
   17.5612   17.2701   21.5337 H   0  0  0  0  0  0  0  0  0  0  0  0
   18.7516   17.7715   20.5200 H   0  0  0  0  0  0  0  0  0  0  0  0
   18.7463   18.8064   22.3556 C   0  0  0  0  0  0  0  0  0  0  0  0
   17.9764   19.1419   23.0549 H   0  0  0  0  0  0  0  0  0  0  0  0
   19.2574   19.6860   21.9573 H   0  0  0  0  0  0  0  0  0  0  0  0
   19.7559   17.9035   23.0906 C   0  0  0  0  0  0  0  0  0  0  0  0
   19.2380   17.0020   23.4440 H   0  0  0  0  0  0  0  0  0  0  0  0
   20.5301   17.5664   22.3886 H   0  0  0  0  0  0  0  0  0  0  0  0
   20.4198   18.6056   24.2989 C   0  0  0  0  0  0  0  0  0  0  0  0
   21.0335   17.8668   24.8305 H   0  0  0  0  0  0  0  0  0  0  0  0
   19.6436   18.9317   25.0050 H   0  0  0  0  0  0  0  0  0  0  0  0
   21.2990   19.8157   23.8917 C   0  0  0  0  0  0  0  0  0  0  0  0
   22.0876   19.4853   23.2016 H   0  0  0  0  0  0  0  0  0  0  0  0
   20.6899   20.5431   23.3390 H   0  0  0  0  0  0  0  0  0  0  0  0
   21.9410   20.5443   25.0975 C   0  0  0  0  0  0  0  0  0  0  0  0
   21.1560   20.8872   25.7859 H   0  0  0  0  0  0  0  0  0  0  0  0
   22.4461   21.4498   24.7330 H   0  0  0  0  0  0  0  0  0  0  0  0
   22.9663   19.6799   25.8665 C   0  0  0  0  0  0  0  0  0  0  0  0
   22.4862   18.8253   26.3588 H   0  0  0  0  0  0  0  0  0  0  0  0
   23.4603   20.2735   26.6466 H   0  0  0  0  0  0  0  0  0  0  0  0
   23.7445   19.2973   25.1934 H   0  0  0  0  0  0  0  0  0  0  0  0
   17.0795   19.0711   20.5292 C   0  0  0  0  0  0  0  0  0  0  0  0
   17.6284   19.9381   20.1549 H   0  0  0  0  0  0  0  0  0  0  0  0
   16.5878   18.5593   19.6989 H   0  0  0  0  0  0  0  0  0  0  0  0
   16.3327   19.3924   21.2586 H   0  0  0  0  0  0  0  0  0  0  0  0
  1  2  1  0  0  0  0
  1  3  1  0  0  0  0
  1  4  1  0  0  0  0
  4  5  1  0  0  0  0
  4  6  1  0  0  0  0
  4  7  1  0  0  0  0
  7  8  1  0  0  0  0
  7  9  1  0  0  0  0
  7 10  1  0  0  0  0
 10 11  1  0  0  0  0
 10 12  1  0  0  0  0
 10 13  1  0  0  0  0
 13 14  1  0  0  0  0
 13 15  1  0  0  0  0
 13 16  1  0  0  0  0
 16 17  1  0  0  0  0
 16 18  1  0  0  0  0
 16 19  1  0  0  0  0
 19 20  1  0  0  0  0
 19 21  1  0  0  0  0
 19 22  1  0  0  0  0
  1 23  1  0  0  0  0
 23 24  1  0  0  0  0
 23 25  1  0  0  0  0
 23 26  1  0  0  0  0
M  END
> <VConfSearch Rank>
704

> <Conf_Id>
137

> <Delta U+W>
1.038

> <U+W>
22.880

> <U>
71.810

> <W>
-48.930

> <W(PB)>
-51.257

> <W(SA)>
2.327

> <Valence>
2.568

> <Coulomb>
68.877

> <VdW>
0.364

> <VdW6>
-6.470

> <VdW12>
6.834

> <Bond>
0.191

> <Angle>
0.752

> <Pdih>
1.626

> <Idih>
0.000

> <Tether>
0.000

$$$$
VeraChem MOL file


 26 25  0  0  0  0  0  0  0  0999 V2000     
   22.9943   19.1620   22.7115 N   0  3  0  0  0  0  0  0  0  0  0  0
   23.1406   18.7480   23.6453 H   0  0  0  0  0  0  0  0  0  0  0  0
   23.0822   20.1813   22.8460 H   0  0  0  0  0  0  0  0  0  0  0  0
   21.6100   18.8196   22.1984 C   0  0  0  0  0  0  0  0  0  0  0  0
   21.5559   17.7347   22.0776 H   0  0  0  0  0  0  0  0  0  0  0  0
   21.4934   19.2817   21.2148 H   0  0  0  0  0  0  0  0  0  0  0  0
   20.4804   19.2938   23.1307 C   0  0  0  0  0  0  0  0  0  0  0  0
   20.6189   18.8384   24.1193 H   0  0  0  0  0  0  0  0  0  0  0  0
   20.5485   20.3819   23.2619 H   0  0  0  0  0  0  0  0  0  0  0  0
   19.0897   18.9236   22.5630 C   0  0  0  0  0  0  0  0  0  0  0  0
   19.0029   17.8314   22.4776 H   0  0  0  0  0  0  0  0  0  0  0  0
   19.0047   19.3198   21.5415 H   0  0  0  0  0  0  0  0  0  0  0  0
   17.9102   19.4739   23.4024 C   0  0  0  0  0  0  0  0  0  0  0  0
   17.9869   20.5678   23.4731 H   0  0  0  0  0  0  0  0  0  0  0  0
   16.9743   19.2655   22.8658 H   0  0  0  0  0  0  0  0  0  0  0  0
   17.8216   18.8644   24.8219 C   0  0  0  0  0  0  0  0  0  0  0  0
   18.7143   19.1278   25.4046 H   0  0  0  0  0  0  0  0  0  0  0  0
   17.7972   17.7678   24.7542 H   0  0  0  0  0  0  0  0  0  0  0  0
   16.5685   19.3580   25.5763 C   0  0  0  0  0  0  0  0  0  0  0  0
   16.5788   20.4502   25.6863 H   0  0  0  0  0  0  0  0  0  0  0  0
   16.5229   18.9187   26.5812 H   0  0  0  0  0  0  0  0  0  0  0  0
   15.6503   19.0766   25.0443 H   0  0  0  0  0  0  0  0  0  0  0  0
   24.0479   18.6597   21.7339 C   0  0  0  0  0  0  0  0  0  0  0  0
   23.8934   19.1360   20.7633 H   0  0  0  0  0  0  0  0  0  0  0  0
   25.0398   18.9127   22.1152 H   0  0  0  0  0  0  0  0  0  0  0  0
   23.9569   17.5760   21.6332 H   0  0  0  0  0  0  0  0  0  0  0  0
  1  2  1  0  0  0  0
  1  3  1  0  0  0  0
  1  4  1  0  0  0  0
  4  5  1  0  0  0  0
  4  6  1  0  0  0  0
  4  7  1  0  0  0  0
  7  8  1  0  0  0  0
  7  9  1  0  0  0  0
  7 10  1  0  0  0  0
 10 11  1  0  0  0  0
 10 12  1  0  0  0  0
 10 13  1  0  0  0  0
 13 14  1  0  0  0  0
 13 15  1  0  0  0  0
 13 16  1  0  0  0  0
 16 17  1  0  0  0  0
 16 18  1  0  0  0  0
 16 19  1  0  0  0  0
 19 20  1  0  0  0  0
 19 21  1  0  0  0  0
 19 22  1  0  0  0  0
  1 23  1  0  0  0  0
 23 24  1  0  0  0  0
 23 25  1  0  0  0  0
 23 26  1  0  0  0  0
M  END
> <VConfSearch Rank>
705

> <Conf_Id>
35

> <Delta U+W>
0.670

> <U+W>
22.512

> <U>
71.348

> <W>
-48.837

> <W(PB)>
-51.150

> <W(SA)>
2.313

> <Valence>
2.262

> <Coulomb>
68.807

> <VdW>
0.280

> <VdW6>
-5.915

> <VdW12>
6.195

> <Bond>
0.164

> <Angle>
0.622

> <Pdih>
1.475

> <Idih>
0.000

> <Tether>
0.000

$$$$
VeraChem MOL file


 26 25  0  0  0  0  0  0  0  0999 V2000     
   22.1227   17.3246   24.4880 N   0  3  0  0  0  0  0  0  0  0  0  0
   22.8034   17.4622   23.7248 H   0  0  0  0  0  0  0  0  0  0  0  0
   21.5459   16.5190   24.1996 H   0  0  0  0  0  0  0  0  0  0  0  0
   21.2567   18.5584   24.6452 C   0  0  0  0  0  0  0  0  0  0  0  0
   21.9046   19.3869   24.9422 H   0  0  0  0  0  0  0  0  0  0  0  0
   20.5470   18.3691   25.4545 H   0  0  0  0  0  0  0  0  0  0  0  0
   20.4917   18.9330   23.3628 C   0  0  0  0  0  0  0  0  0  0  0  0
   21.2078   19.1063   22.5486 H   0  0  0  0  0  0  0  0  0  0  0  0
   19.8596   18.0872   23.0645 H   0  0  0  0  0  0  0  0  0  0  0  0
   19.6260   20.1977   23.5732 C   0  0  0  0  0  0  0  0  0  0  0  0
   20.2650   21.0085   23.9502 H   0  0  0  0  0  0  0  0  0  0  0  0
   18.8766   20.0083   24.3543 H   0  0  0  0  0  0  0  0  0  0  0  0
   18.9202   20.6880   22.2847 C   0  0  0  0  0  0  0  0  0  0  0  0
   18.4292   21.6471   22.5005 H   0  0  0  0  0  0  0  0  0  0  0  0
   19.6707   20.8946   21.5092 H   0  0  0  0  0  0  0  0  0  0  0  0
   17.8658   19.6956   21.7392 C   0  0  0  0  0  0  0  0  0  0  0  0
   17.1443   19.4483   22.5304 H   0  0  0  0  0  0  0  0  0  0  0  0
   18.3478   18.7548   21.4422 H   0  0  0  0  0  0  0  0  0  0  0  0
   17.1122   20.2768   20.5237 C   0  0  0  0  0  0  0  0  0  0  0  0
   16.5813   21.1995   20.7918 H   0  0  0  0  0  0  0  0  0  0  0  0
   16.3710   19.5595   20.1479 H   0  0  0  0  0  0  0  0  0  0  0  0
   17.8044   20.5067   19.7032 H   0  0  0  0  0  0  0  0  0  0  0  0
   22.8410   17.0257   25.7966 C   0  0  0  0  0  0  0  0  0  0  0  0
   22.1010   16.8511   26.5808 H   0  0  0  0  0  0  0  0  0  0  0  0
   23.4609   16.1353   25.6697 H   0  0  0  0  0  0  0  0  0  0  0  0
   23.4697   17.8778   26.0640 H   0  0  0  0  0  0  0  0  0  0  0  0
  1  2  1  0  0  0  0
  1  3  1  0  0  0  0
  1  4  1  0  0  0  0
  4  5  1  0  0  0  0
  4  6  1  0  0  0  0
  4  7  1  0  0  0  0
  7  8  1  0  0  0  0
  7  9  1  0  0  0  0
  7 10  1  0  0  0  0
 10 11  1  0  0  0  0
 10 12  1  0  0  0  0
 10 13  1  0  0  0  0
 13 14  1  0  0  0  0
 13 15  1  0  0  0  0
 13 16  1  0  0  0  0
 16 17  1  0  0  0  0
 16 18  1  0  0  0  0
 16 19  1  0  0  0  0
 19 20  1  0  0  0  0
 19 21  1  0  0  0  0
 19 22  1  0  0  0  0
  1 23  1  0  0  0  0
 23 24  1  0  0  0  0
 23 25  1  0  0  0  0
 23 26  1  0  0  0  0
M  END
> <VConfSearch Rank>
706

> <Conf_Id>
36

> <Delta U+W>
0.662

> <U+W>
22.504

> <U>
71.348

> <W>
-48.844

> <W(PB)>
-51.157

> <W(SA)>
2.313

> <Valence>
2.262

> <Coulomb>
68.807

> <VdW>
0.280

> <VdW6>
-5.916

> <VdW12>
6.195

> <Bond>
0.164

> <Angle>
0.622

> <Pdih>
1.475

> <Idih>
0.000

> <Tether>
0.000

$$$$
VeraChem MOL file


 26 25  0  0  0  0  0  0  0  0999 V2000     
   20.8821   20.2831   20.6072 N   0  3  0  0  0  0  0  0  0  0  0  0
   21.5778   19.5660   20.3490 H   0  0  0  0  0  0  0  0  0  0  0  0
   21.3994   21.1759   20.6182 H   0  0  0  0  0  0  0  0  0  0  0  0
   20.3148   19.9905   21.9816 C   0  0  0  0  0  0  0  0  0  0  0  0
   19.7822   19.0382   21.9257 H   0  0  0  0  0  0  0  0  0  0  0  0
   19.5933   20.7758   22.2208 H   0  0  0  0  0  0  0  0  0  0  0  0
   21.3907   19.9226   23.0825 C   0  0  0  0  0  0  0  0  0  0  0  0
   22.1166   19.1347   22.8414 H   0  0  0  0  0  0  0  0  0  0  0  0
   21.9476   20.8689   23.0989 H   0  0  0  0  0  0  0  0  0  0  0  0
   20.7937   19.6672   24.4867 C   0  0  0  0  0  0  0  0  0  0  0  0
   20.0883   20.4720   24.7367 H   0  0  0  0  0  0  0  0  0  0  0  0
   21.6024   19.7222   25.2285 H   0  0  0  0  0  0  0  0  0  0  0  0
   20.0855   18.2961   24.6064 C   0  0  0  0  0  0  0  0  0  0  0  0
   19.2427   18.2459   23.9041 H   0  0  0  0  0  0  0  0  0  0  0  0
   20.7837   17.4961   24.3235 H   0  0  0  0  0  0  0  0  0  0  0  0
   19.5660   18.0414   26.0390 C   0  0  0  0  0  0  0  0  0  0  0  0
   18.8674   18.8394   26.3277 H   0  0  0  0  0  0  0  0  0  0  0  0
   20.4030   18.0807   26.7503 H   0  0  0  0  0  0  0  0  0  0  0  0
   18.8586   16.6745   26.1568 C   0  0  0  0  0  0  0  0  0  0  0  0
   17.9945   16.6173   25.4821 H   0  0  0  0  0  0  0  0  0  0  0  0
   18.4974   16.5118   27.1806 H   0  0  0  0  0  0  0  0  0  0  0  0
   19.5425   15.8530   25.9067 H   0  0  0  0  0  0  0  0  0  0  0  0
   19.7576   20.3300   19.5820 C   0  0  0  0  0  0  0  0  0  0  0  0
   19.0525   21.1171   19.8580 H   0  0  0  0  0  0  0  0  0  0  0  0
   20.1796   20.5416   18.5969 H   0  0  0  0  0  0  0  0  0  0  0  0
   19.2468   19.3647   19.5647 H   0  0  0  0  0  0  0  0  0  0  0  0
  1  2  1  0  0  0  0
  1  3  1  0  0  0  0
  1  4  1  0  0  0  0
  4  5  1  0  0  0  0
  4  6  1  0  0  0  0
  4  7  1  0  0  0  0
  7  8  1  0  0  0  0
  7  9  1  0  0  0  0
  7 10  1  0  0  0  0
 10 11  1  0  0  0  0
 10 12  1  0  0  0  0
 10 13  1  0  0  0  0
 13 14  1  0  0  0  0
 13 15  1  0  0  0  0
 13 16  1  0  0  0  0
 16 17  1  0  0  0  0
 16 18  1  0  0  0  0
 16 19  1  0  0  0  0
 19 20  1  0  0  0  0
 19 21  1  0  0  0  0
 19 22  1  0  0  0  0
  1 23  1  0  0  0  0
 23 24  1  0  0  0  0
 23 25  1  0  0  0  0
 23 26  1  0  0  0  0
M  END
> <VConfSearch Rank>
707

> <Conf_Id>
46

> <Delta U+W>
0.496

> <U+W>
22.338

> <U>
71.138

> <W>
-48.799

> <W(PB)>
-51.136

> <W(SA)>
2.337

> <Valence>
2.016

> <Coulomb>
68.932

> <VdW>
0.190

> <VdW6>
-5.902

> <VdW12>
6.092

> <Bond>
0.149

> <Angle>
0.477

> <Pdih>
1.390

> <Idih>
0.000

> <Tether>
0.000

$$$$
VeraChem MOL file


 26 25  0  0  0  0  0  0  0  0999 V2000     
   21.1219   19.1615   20.4914 N   0  3  0  0  0  0  0  0  0  0  0  0
   21.8271   18.4450   20.2586 H   0  0  0  0  0  0  0  0  0  0  0  0
   21.6509   20.0400   20.6063 H   0  0  0  0  0  0  0  0  0  0  0  0
   20.4181   18.8019   21.7843 C   0  0  0  0  0  0  0  0  0  0  0  0
   19.8808   17.8638   21.6240 H   0  0  0  0  0  0  0  0  0  0  0  0
   19.6873   19.5864   21.9945 H   0  0  0  0  0  0  0  0  0  0  0  0
   21.3794   18.6507   22.9791 C   0  0  0  0  0  0  0  0  0  0  0  0
   22.1348   17.8911   22.7380 H   0  0  0  0  0  0  0  0  0  0  0  0
   21.9206   19.5927   23.1392 H   0  0  0  0  0  0  0  0  0  0  0  0
   20.6532   18.2406   24.2821 C   0  0  0  0  0  0  0  0  0  0  0  0
   21.4052   18.0631   25.0634 H   0  0  0  0  0  0  0  0  0  0  0  0
   20.1352   17.2839   24.1272 H   0  0  0  0  0  0  0  0  0  0  0  0
   19.6457   19.3058   24.7781 C   0  0  0  0  0  0  0  0  0  0  0  0
   20.1600   20.2692   24.9000 H   0  0  0  0  0  0  0  0  0  0  0  0
   18.8593   19.4578   24.0268 H   0  0  0  0  0  0  0  0  0  0  0  0
   18.9931   18.8988   26.1181 C   0  0  0  0  0  0  0  0  0  0  0  0
   19.7709   18.7522   26.8808 H   0  0  0  0  0  0  0  0  0  0  0  0
   18.4777   17.9350   26.0022 H   0  0  0  0  0  0  0  0  0  0  0  0
   17.9873   19.9611   26.6110 C   0  0  0  0  0  0  0  0  0  0  0  0
   18.4808   20.9290   26.7688 H   0  0  0  0  0  0  0  0  0  0  0  0
   17.5352   19.6546   27.5632 H   0  0  0  0  0  0  0  0  0  0  0  0
   17.1769   20.1049   25.8845 H   0  0  0  0  0  0  0  0  0  0  0  0
   20.1040   19.2941   19.3671 C   0  0  0  0  0  0  0  0  0  0  0  0
   20.6238   19.5530   18.4420 H   0  0  0  0  0  0  0  0  0  0  0  0
   19.5807   18.3435   19.2425 H   0  0  0  0  0  0  0  0  0  0  0  0
   19.3890   20.0799   19.6207 H   0  0  0  0  0  0  0  0  0  0  0  0
  1  2  1  0  0  0  0
  1  3  1  0  0  0  0
  1  4  1  0  0  0  0
  4  5  1  0  0  0  0
  4  6  1  0  0  0  0
  4  7  1  0  0  0  0
  7  8  1  0  0  0  0
  7  9  1  0  0  0  0
  7 10  1  0  0  0  0
 10 11  1  0  0  0  0
 10 12  1  0  0  0  0
 10 13  1  0  0  0  0
 13 14  1  0  0  0  0
 13 15  1  0  0  0  0
 13 16  1  0  0  0  0
 16 17  1  0  0  0  0
 16 18  1  0  0  0  0
 16 19  1  0  0  0  0
 19 20  1  0  0  0  0
 19 21  1  0  0  0  0
 19 22  1  0  0  0  0
  1 23  1  0  0  0  0
 23 24  1  0  0  0  0
 23 25  1  0  0  0  0
 23 26  1  0  0  0  0
M  END
> <VConfSearch Rank>
708

> <Conf_Id>
45

> <Delta U+W>
0.471

> <U+W>
22.313

> <U>
71.138

> <W>
-48.825

> <W(PB)>
-51.169

> <W(SA)>
2.344

> <Valence>
2.016

> <Coulomb>
68.932

> <VdW>
0.190

> <VdW6>
-5.902

> <VdW12>
6.092

> <Bond>
0.149

> <Angle>
0.477

> <Pdih>
1.390

> <Idih>
0.000

> <Tether>
0.000

$$$$
VeraChem MOL file


 26 25  0  0  0  0  0  0  0  0999 V2000     
   22.4528   19.1634   22.2328 N   0  3  0  0  0  0  0  0  0  0  0  0
   21.8694   19.8684   21.7577 H   0  0  0  0  0  0  0  0  0  0  0  0
   22.2107   18.2619   21.7931 H   0  0  0  0  0  0  0  0  0  0  0  0
   22.1237   19.1271   23.7128 C   0  0  0  0  0  0  0  0  0  0  0  0
   22.3844   20.0987   24.1401 H   0  0  0  0  0  0  0  0  0  0  0  0
   22.7618   18.3691   24.1742 H   0  0  0  0  0  0  0  0  0  0  0  0
   20.6471   18.8062   24.0164 C   0  0  0  0  0  0  0  0  0  0  0  0
   20.3964   17.8289   23.5850 H   0  0  0  0  0  0  0  0  0  0  0  0
   20.5296   18.7100   25.1039 H   0  0  0  0  0  0  0  0  0  0  0  0
   19.6807   19.8968   23.4898 C   0  0  0  0  0  0  0  0  0  0  0  0
   19.7224   19.9411   22.3933 H   0  0  0  0  0  0  0  0  0  0  0  0
   20.0184   20.8777   23.8525 H   0  0  0  0  0  0  0  0  0  0  0  0
   18.2127   19.6877   23.9364 C   0  0  0  0  0  0  0  0  0  0  0  0
   18.1605   19.6667   25.0337 H   0  0  0  0  0  0  0  0  0  0  0  0
   17.6241   20.5591   23.6174 H   0  0  0  0  0  0  0  0  0  0  0  0
   17.5667   18.4059   23.3587 C   0  0  0  0  0  0  0  0  0  0  0  0
   18.0942   17.5160   23.7270 H   0  0  0  0  0  0  0  0  0  0  0  0
   17.6624   18.4028   22.2639 H   0  0  0  0  0  0  0  0  0  0  0  0
   16.0752   18.2977   23.7416 C   0  0  0  0  0  0  0  0  0  0  0  0
   15.9487   18.2682   24.8317 H   0  0  0  0  0  0  0  0  0  0  0  0
   15.6338   17.3823   23.3265 H   0  0  0  0  0  0  0  0  0  0  0  0
   15.5045   19.1518   23.3542 H   0  0  0  0  0  0  0  0  0  0  0  0
   23.9303   19.4740   22.0377 C   0  0  0  0  0  0  0  0  0  0  0  0
   24.5273   18.6980   22.5219 H   0  0  0  0  0  0  0  0  0  0  0  0
   24.1533   19.4976   20.9686 H   0  0  0  0  0  0  0  0  0  0  0  0
   24.1549   20.4456   22.4830 H   0  0  0  0  0  0  0  0  0  0  0  0
  1  2  1  0  0  0  0
  1  3  1  0  0  0  0
  1  4  1  0  0  0  0
  4  5  1  0  0  0  0
  4  6  1  0  0  0  0
  4  7  1  0  0  0  0
  7  8  1  0  0  0  0
  7  9  1  0  0  0  0
  7 10  1  0  0  0  0
 10 11  1  0  0  0  0
 10 12  1  0  0  0  0
 10 13  1  0  0  0  0
 13 14  1  0  0  0  0
 13 15  1  0  0  0  0
 13 16  1  0  0  0  0
 16 17  1  0  0  0  0
 16 18  1  0  0  0  0
 16 19  1  0  0  0  0
 19 20  1  0  0  0  0
 19 21  1  0  0  0  0
 19 22  1  0  0  0  0
  1 23  1  0  0  0  0
 23 24  1  0  0  0  0
 23 25  1  0  0  0  0
 23 26  1  0  0  0  0
M  END
> <VConfSearch Rank>
709

> <Conf_Id>
143

> <Delta U+W>
0.915

> <U+W>
22.757

> <U>
71.994

> <W>
-49.237

> <W(PB)>
-51.537

> <W(SA)>
2.300

> <Valence>
2.376

> <Coulomb>
69.315

> <VdW>
0.303

> <VdW6>
-6.508

> <VdW12>
6.810

> <Bond>
0.182

> <Angle>
0.660

> <Pdih>
1.534

> <Idih>
0.000

> <Tether>
0.000

$$$$
VeraChem MOL file


 26 25  0  0  0  0  0  0  0  0999 V2000     
   21.1769   19.1220   25.6520 N   0  3  0  0  0  0  0  0  0  0  0  0
   20.6192   19.9878   25.6995 H   0  0  0  0  0  0  0  0  0  0  0  0
   22.0850   19.3999   25.2485 H   0  0  0  0  0  0  0  0  0  0  0  0
   20.4940   18.1099   24.7523 C   0  0  0  0  0  0  0  0  0  0  0  0
   19.5346   17.8477   25.2052 H   0  0  0  0  0  0  0  0  0  0  0  0
   21.1188   17.2132   24.7341 H   0  0  0  0  0  0  0  0  0  0  0  0
   20.2693   18.6034   23.3092 C   0  0  0  0  0  0  0  0  0  0  0  0
   21.2309   18.8947   22.8664 H   0  0  0  0  0  0  0  0  0  0  0  0
   19.8893   17.7583   22.7222 H   0  0  0  0  0  0  0  0  0  0  0  0
   19.2650   19.7789   23.2281 C   0  0  0  0  0  0  0  0  0  0  0  0
   19.5903   20.5854   23.8983 H   0  0  0  0  0  0  0  0  0  0  0  0
   18.2863   19.4476   23.6021 H   0  0  0  0  0  0  0  0  0  0  0  0
   19.0966   20.3793   21.8081 C   0  0  0  0  0  0  0  0  0  0  0  0
   18.3995   21.2250   21.8881 H   0  0  0  0  0  0  0  0  0  0  0  0
   20.0467   20.8122   21.4658 H   0  0  0  0  0  0  0  0  0  0  0  0
   18.5412   19.3964   20.7450 C   0  0  0  0  0  0  0  0  0  0  0  0
   17.8847   19.9539   20.0622 H   0  0  0  0  0  0  0  0  0  0  0  0
   17.9053   18.6371   21.2211 H   0  0  0  0  0  0  0  0  0  0  0  0
   19.6446   18.7204   19.8975 C   0  0  0  0  0  0  0  0  0  0  0  0
   20.3305   18.1255   20.5104 H   0  0  0  0  0  0  0  0  0  0  0  0
   20.2382   19.4698   19.3580 H   0  0  0  0  0  0  0  0  0  0  0  0
   19.1989   18.0498   19.1515 H   0  0  0  0  0  0  0  0  0  0  0  0
   21.3675   18.5335   27.0430 C   0  0  0  0  0  0  0  0  0  0  0  0
   21.9869   17.6367   26.9717 H   0  0  0  0  0  0  0  0  0  0  0  0
   21.8595   19.2718   27.6801 H   0  0  0  0  0  0  0  0  0  0  0  0
   20.3917   18.2770   27.4613 H   0  0  0  0  0  0  0  0  0  0  0  0
  1  2  1  0  0  0  0
  1  3  1  0  0  0  0
  1  4  1  0  0  0  0
  4  5  1  0  0  0  0
  4  6  1  0  0  0  0
  4  7  1  0  0  0  0
  7  8  1  0  0  0  0
  7  9  1  0  0  0  0
  7 10  1  0  0  0  0
 10 11  1  0  0  0  0
 10 12  1  0  0  0  0
 10 13  1  0  0  0  0
 13 14  1  0  0  0  0
 13 15  1  0  0  0  0
 13 16  1  0  0  0  0
 16 17  1  0  0  0  0
 16 18  1  0  0  0  0
 16 19  1  0  0  0  0
 19 20  1  0  0  0  0
 19 21  1  0  0  0  0
 19 22  1  0  0  0  0
  1 23  1  0  0  0  0
 23 24  1  0  0  0  0
 23 25  1  0  0  0  0
 23 26  1  0  0  0  0
M  END
> <VConfSearch Rank>
710

> <Conf_Id>
76

> <Delta U+W>
3.468

> <U+W>
25.310

> <U>
74.594

> <W>
-49.283

> <W(PB)>
-51.537

> <W(SA)>
2.253

> <Valence>
4.886

> <Coulomb>
69.332

> <VdW>
0.376

> <VdW6>
-7.329

> <VdW12>
7.705

> <Bond>
0.232

> <Angle>
1.251

> <Pdih>
3.403

> <Idih>
0.000

> <Tether>
0.000

$$$$
VeraChem MOL file


 26 25  0  0  0  0  0  0  0  0999 V2000     
   21.2636   21.2252   24.6303 N   0  3  0  0  0  0  0  0  0  0  0  0
   21.8371   20.5127   25.1079 H   0  0  0  0  0  0  0  0  0  0  0  0
   20.5266   21.4823   25.3053 H   0  0  0  0  0  0  0  0  0  0  0  0
   20.6437   20.6434   23.3757 C   0  0  0  0  0  0  0  0  0  0  0  0
   21.4548   20.3785   22.6928 H   0  0  0  0  0  0  0  0  0  0  0  0
   20.0400   21.4245   22.9068 H   0  0  0  0  0  0  0  0  0  0  0  0
   19.7696   19.4054   23.6459 C   0  0  0  0  0  0  0  0  0  0  0  0
   20.3758   18.6373   24.1390 H   0  0  0  0  0  0  0  0  0  0  0  0
   18.9670   19.6741   24.3456 H   0  0  0  0  0  0  0  0  0  0  0  0
   19.1518   18.8560   22.3375 C   0  0  0  0  0  0  0  0  0  0  0  0
   19.9401   18.6369   21.6040 H   0  0  0  0  0  0  0  0  0  0  0  0
   18.5356   19.6495   21.8920 H   0  0  0  0  0  0  0  0  0  0  0  0
   18.2605   17.6044   22.5512 C   0  0  0  0  0  0  0  0  0  0  0  0
   17.7974   17.6310   23.5472 H   0  0  0  0  0  0  0  0  0  0  0  0
   17.4270   17.6524   21.8368 H   0  0  0  0  0  0  0  0  0  0  0  0
   18.9813   16.2490   22.3347 C   0  0  0  0  0  0  0  0  0  0  0  0
   19.3501   16.1887   21.3011 H   0  0  0  0  0  0  0  0  0  0  0  0
   18.2433   15.4416   22.4410 H   0  0  0  0  0  0  0  0  0  0  0  0
   20.1483   15.9839   23.3109 C   0  0  0  0  0  0  0  0  0  0  0  0
   19.8277   16.1025   24.3540 H   0  0  0  0  0  0  0  0  0  0  0  0
   20.9881   16.6638   23.1225 H   0  0  0  0  0  0  0  0  0  0  0  0
   20.5239   14.9596   23.1899 H   0  0  0  0  0  0  0  0  0  0  0  0
   22.1091   22.4403   24.2746 C   0  0  0  0  0  0  0  0  0  0  0  0
   22.9012   22.1376   23.5863 H   0  0  0  0  0  0  0  0  0  0  0  0
   21.4749   23.1930   23.8012 H   0  0  0  0  0  0  0  0  0  0  0  0
   22.5494   22.8497   25.1866 H   0  0  0  0  0  0  0  0  0  0  0  0
  1  2  1  0  0  0  0
  1  3  1  0  0  0  0
  1  4  1  0  0  0  0
  4  5  1  0  0  0  0
  4  6  1  0  0  0  0
  4  7  1  0  0  0  0
  7  8  1  0  0  0  0
  7  9  1  0  0  0  0
  7 10  1  0  0  0  0
 10 11  1  0  0  0  0
 10 12  1  0  0  0  0
 10 13  1  0  0  0  0
 13 14  1  0  0  0  0
 13 15  1  0  0  0  0
 13 16  1  0  0  0  0
 16 17  1  0  0  0  0
 16 18  1  0  0  0  0
 16 19  1  0  0  0  0
 19 20  1  0  0  0  0
 19 21  1  0  0  0  0
 19 22  1  0  0  0  0
  1 23  1  0  0  0  0
 23 24  1  0  0  0  0
 23 25  1  0  0  0  0
 23 26  1  0  0  0  0
M  END
> <VConfSearch Rank>
711

> <Conf_Id>
123

> <Delta U+W>
3.101

> <U+W>
24.943

> <U>
74.070

> <W>
-49.127

> <W(PB)>
-51.421

> <W(SA)>
2.295

> <Valence>
4.690

> <Coulomb>
69.115

> <VdW>
0.266

> <VdW6>
-6.809

> <VdW12>
7.075

> <Bond>
0.212

> <Angle>
1.133

> <Pdih>
3.345

> <Idih>
0.000

> <Tether>
0.000

$$$$
VeraChem MOL file


 26 25  0  0  0  0  0  0  0  0999 V2000     
   21.9980   20.9211   23.2874 N   0  3  0  0  0  0  0  0  0  0  0  0
   21.5486   21.7336   23.7375 H   0  0  0  0  0  0  0  0  0  0  0  0
   21.6437   20.9104   22.3191 H   0  0  0  0  0  0  0  0  0  0  0  0
   21.6009   19.6434   24.0013 C   0  0  0  0  0  0  0  0  0  0  0  0
   21.9964   19.6983   25.0188 H   0  0  0  0  0  0  0  0  0  0  0  0
   22.0861   18.8074   23.4914 H   0  0  0  0  0  0  0  0  0  0  0  0
   20.0793   19.4036   24.0573 C   0  0  0  0  0  0  0  0  0  0  0  0
   19.8946   18.5235   24.6834 H   0  0  0  0  0  0  0  0  0  0  0  0
   19.5956   20.2486   24.5650 H   0  0  0  0  0  0  0  0  0  0  0  0
   19.4539   19.2043   22.6530 C   0  0  0  0  0  0  0  0  0  0  0  0
   19.9957   18.4243   22.1001 H   0  0  0  0  0  0  0  0  0  0  0  0
   19.5835   20.1308   22.0780 H   0  0  0  0  0  0  0  0  0  0  0  0
   17.9396   18.8705   22.6956 C   0  0  0  0  0  0  0  0  0  0  0  0
   17.4739   19.3217   23.5826 H   0  0  0  0  0  0  0  0  0  0  0  0
   17.4585   19.3516   21.8327 H   0  0  0  0  0  0  0  0  0  0  0  0
   17.6071   17.3576   22.6300 C   0  0  0  0  0  0  0  0  0  0  0  0
   17.9886   16.9372   21.6890 H   0  0  0  0  0  0  0  0  0  0  0  0
   16.5148   17.2422   22.5930 H   0  0  0  0  0  0  0  0  0  0  0  0
   18.1518   16.5332   23.8171 C   0  0  0  0  0  0  0  0  0  0  0  0
   17.8353   16.9626   24.7764 H   0  0  0  0  0  0  0  0  0  0  0  0
   19.2474   16.4842   23.7994 H   0  0  0  0  0  0  0  0  0  0  0  0
   17.7775   15.5023   23.7715 H   0  0  0  0  0  0  0  0  0  0  0  0
   23.5127   21.0726   23.2997 C   0  0  0  0  0  0  0  0  0  0  0  0
   23.9633   20.2178   22.7906 H   0  0  0  0  0  0  0  0  0  0  0  0
   23.7847   21.9955   22.7825 H   0  0  0  0  0  0  0  0  0  0  0  0
   23.8610   21.1131   24.3341 H   0  0  0  0  0  0  0  0  0  0  0  0
  1  2  1  0  0  0  0
  1  3  1  0  0  0  0
  1  4  1  0  0  0  0
  4  5  1  0  0  0  0
  4  6  1  0  0  0  0
  4  7  1  0  0  0  0
  7  8  1  0  0  0  0
  7  9  1  0  0  0  0
  7 10  1  0  0  0  0
 10 11  1  0  0  0  0
 10 12  1  0  0  0  0
 10 13  1  0  0  0  0
 13 14  1  0  0  0  0
 13 15  1  0  0  0  0
 13 16  1  0  0  0  0
 16 17  1  0  0  0  0
 16 18  1  0  0  0  0
 16 19  1  0  0  0  0
 19 20  1  0  0  0  0
 19 21  1  0  0  0  0
 19 22  1  0  0  0  0
  1 23  1  0  0  0  0
 23 24  1  0  0  0  0
 23 25  1  0  0  0  0
 23 26  1  0  0  0  0
M  END
> <VConfSearch Rank>
712

> <Conf_Id>
111

> <Delta U+W>
3.383

> <U+W>
25.225

> <U>
74.516

> <W>
-49.292

> <W(PB)>
-51.558

> <W(SA)>
2.266

> <Valence>
4.842

> <Coulomb>
69.333

> <VdW>
0.342

> <VdW6>
-7.369

> <VdW12>
7.711

> <Bond>
0.232

> <Angle>
1.153

> <Pdih>
3.457

> <Idih>
0.000

> <Tether>
0.000

$$$$
VeraChem MOL file


 26 25  0  0  0  0  0  0  0  0999 V2000     
   18.0212   20.1444   22.4636 N   0  3  0  0  0  0  0  0  0  0  0  0
   17.1661   19.5758   22.5647 H   0  0  0  0  0  0  0  0  0  0  0  0
   18.6580   19.5850   21.8764 H   0  0  0  0  0  0  0  0  0  0  0  0
   18.6494   20.3876   23.8218 C   0  0  0  0  0  0  0  0  0  0  0  0
   17.9405   20.9713   24.4146 H   0  0  0  0  0  0  0  0  0  0  0  0
   19.5466   20.9932   23.6743 H   0  0  0  0  0  0  0  0  0  0  0  0
   19.0107   19.0952   24.5831 C   0  0  0  0  0  0  0  0  0  0  0  0
   19.4129   19.3680   25.5678 H   0  0  0  0  0  0  0  0  0  0  0  0
   18.0926   18.5245   24.7760 H   0  0  0  0  0  0  0  0  0  0  0  0
   20.0312   18.1893   23.8482 C   0  0  0  0  0  0  0  0  0  0  0  0
   19.6050   17.8381   22.8991 H   0  0  0  0  0  0  0  0  0  0  0  0
   20.1917   17.2925   24.4606 H   0  0  0  0  0  0  0  0  0  0  0  0
   21.3900   18.8879   23.5862 C   0  0  0  0  0  0  0  0  0  0  0  0
   21.2283   19.7980   22.9937 H   0  0  0  0  0  0  0  0  0  0  0  0
   21.8285   19.2139   24.5394 H   0  0  0  0  0  0  0  0  0  0  0  0
   22.4051   17.9970   22.8294 C   0  0  0  0  0  0  0  0  0  0  0  0
   23.2893   18.6019   22.5841 H   0  0  0  0  0  0  0  0  0  0  0  0
   21.9765   17.6774   21.8692 H   0  0  0  0  0  0  0  0  0  0  0  0
   22.8596   16.7581   23.6344 C   0  0  0  0  0  0  0  0  0  0  0  0
   22.0328   16.0557   23.7967 H   0  0  0  0  0  0  0  0  0  0  0  0
   23.2620   17.0488   24.6135 H   0  0  0  0  0  0  0  0  0  0  0  0
   23.6484   16.2181   23.0949 H   0  0  0  0  0  0  0  0  0  0  0  0
   17.7047   21.4736   21.7927 C   0  0  0  0  0  0  0  0  0  0  0  0
   17.2542   21.2837   20.8159 H   0  0  0  0  0  0  0  0  0  0  0  0
   17.0063   22.0340   22.4182 H   0  0  0  0  0  0  0  0  0  0  0  0
   18.6288   22.0424   21.6686 H   0  0  0  0  0  0  0  0  0  0  0  0
  1  2  1  0  0  0  0
  1  3  1  0  0  0  0
  1  4  1  0  0  0  0
  4  5  1  0  0  0  0
  4  6  1  0  0  0  0
  4  7  1  0  0  0  0
  7  8  1  0  0  0  0
  7  9  1  0  0  0  0
  7 10  1  0  0  0  0
 10 11  1  0  0  0  0
 10 12  1  0  0  0  0
 10 13  1  0  0  0  0
 13 14  1  0  0  0  0
 13 15  1  0  0  0  0
 13 16  1  0  0  0  0
 16 17  1  0  0  0  0
 16 18  1  0  0  0  0
 16 19  1  0  0  0  0
 19 20  1  0  0  0  0
 19 21  1  0  0  0  0
 19 22  1  0  0  0  0
  1 23  1  0  0  0  0
 23 24  1  0  0  0  0
 23 25  1  0  0  0  0
 23 26  1  0  0  0  0
M  END
> <VConfSearch Rank>
713

> <Conf_Id>
126

> <Delta U+W>
1.519

> <U+W>
23.361

> <U>
72.579

> <W>
-49.218

> <W(PB)>
-51.496

> <W(SA)>
2.279

> <Valence>
2.678

> <Coulomb>
69.622

> <VdW>
0.279

> <VdW6>
-7.328

> <VdW12>
7.608

> <Bond>
0.212

> <Angle>
0.911

> <Pdih>
1.555

> <Idih>
0.000

> <Tether>
0.000

$$$$
VeraChem MOL file


 26 25  0  0  0  0  0  0  0  0999 V2000     
   22.4458   19.1701   23.0113 N   0  3  0  0  0  0  0  0  0  0  0  0
   21.7804   19.1578   22.2238 H   0  0  0  0  0  0  0  0  0  0  0  0
   22.9056   18.2465   23.0002 H   0  0  0  0  0  0  0  0  0  0  0  0
   21.6995   19.3654   24.3165 C   0  0  0  0  0  0  0  0  0  0  0  0
   21.2307   20.3518   24.2919 H   0  0  0  0  0  0  0  0  0  0  0  0
   22.4368   19.3608   25.1233 H   0  0  0  0  0  0  0  0  0  0  0  0
   20.6320   18.2863   24.5928 C   0  0  0  0  0  0  0  0  0  0  0  0
   21.1240   17.3079   24.6731 H   0  0  0  0  0  0  0  0  0  0  0  0
   20.1802   18.4820   25.5743 H   0  0  0  0  0  0  0  0  0  0  0  0
   19.5138   18.2101   23.5223 C   0  0  0  0  0  0  0  0  0  0  0  0
   18.8317   17.3966   23.8012 H   0  0  0  0  0  0  0  0  0  0  0  0
   19.9431   17.9287   22.5516 H   0  0  0  0  0  0  0  0  0  0  0  0
   18.7145   19.5306   23.3792 C   0  0  0  0  0  0  0  0  0  0  0  0
   18.2622   19.7959   24.3448 H   0  0  0  0  0  0  0  0  0  0  0  0
   19.3991   20.3500   23.1236 H   0  0  0  0  0  0  0  0  0  0  0  0
   17.6130   19.4695   22.2931 C   0  0  0  0  0  0  0  0  0  0  0  0
   18.0612   19.2162   21.3221 H   0  0  0  0  0  0  0  0  0  0  0  0
   17.1773   20.4718   22.1774 H   0  0  0  0  0  0  0  0  0  0  0  0
   16.4792   18.4706   22.6191 C   0  0  0  0  0  0  0  0  0  0  0  0
   16.0363   18.6822   23.6009 H   0  0  0  0  0  0  0  0  0  0  0  0
   16.8406   17.4349   22.6203 H   0  0  0  0  0  0  0  0  0  0  0  0
   15.6803   18.5389   21.8694 H   0  0  0  0  0  0  0  0  0  0  0  0
   23.4704   20.2809   22.8281 C   0  0  0  0  0  0  0  0  0  0  0  0
   22.9564   21.2445   22.8116 H   0  0  0  0  0  0  0  0  0  0  0  0
   24.1806   20.2545   23.6575 H   0  0  0  0  0  0  0  0  0  0  0  0
   23.9992   20.1285   21.8846 H   0  0  0  0  0  0  0  0  0  0  0  0
  1  2  1  0  0  0  0
  1  3  1  0  0  0  0
  1  4  1  0  0  0  0
  4  5  1  0  0  0  0
  4  6  1  0  0  0  0
  4  7  1  0  0  0  0
  7  8  1  0  0  0  0
  7  9  1  0  0  0  0
  7 10  1  0  0  0  0
 10 11  1  0  0  0  0
 10 12  1  0  0  0  0
 10 13  1  0  0  0  0
 13 14  1  0  0  0  0
 13 15  1  0  0  0  0
 13 16  1  0  0  0  0
 16 17  1  0  0  0  0
 16 18  1  0  0  0  0
 16 19  1  0  0  0  0
 19 20  1  0  0  0  0
 19 21  1  0  0  0  0
 19 22  1  0  0  0  0
  1 23  1  0  0  0  0
 23 24  1  0  0  0  0
 23 25  1  0  0  0  0
 23 26  1  0  0  0  0
M  END
> <VConfSearch Rank>
714

> <Conf_Id>
134

> <Delta U+W>
1.464

> <U+W>
23.306

> <U>
72.579

> <W>
-49.273

> <W(PB)>
-51.540

> <W(SA)>
2.267

> <Valence>
2.677

> <Coulomb>
69.622

> <VdW>
0.280

> <VdW6>
-7.328

> <VdW12>
7.608

> <Bond>
0.212

> <Angle>
0.911

> <Pdih>
1.555

> <Idih>
0.000

> <Tether>
0.000

$$$$
VeraChem MOL file


 26 25  0  0  0  0  0  0  0  0999 V2000     
   21.8792   17.8045   25.0845 N   0  3  0  0  0  0  0  0  0  0  0  0
   21.1277   17.1071   25.2006 H   0  0  0  0  0  0  0  0  0  0  0  0
   21.8141   18.4188   25.9111 H   0  0  0  0  0  0  0  0  0  0  0  0
   21.6573   18.6069   23.8181 C   0  0  0  0  0  0  0  0  0  0  0  0
   21.7261   17.9209   22.9701 H   0  0  0  0  0  0  0  0  0  0  0  0
   22.4670   19.3365   23.7374 H   0  0  0  0  0  0  0  0  0  0  0  0
   20.3004   19.3333   23.7875 C   0  0  0  0  0  0  0  0  0  0  0  0
   19.4965   18.5932   23.8875 H   0  0  0  0  0  0  0  0  0  0  0  0
   20.2286   20.0097   24.6495 H   0  0  0  0  0  0  0  0  0  0  0  0
   20.1217   20.1376   22.4784 C   0  0  0  0  0  0  0  0  0  0  0  0
   20.1541   19.4571   21.6170 H   0  0  0  0  0  0  0  0  0  0  0  0
   20.9770   20.8169   22.3577 H   0  0  0  0  0  0  0  0  0  0  0  0
   18.8201   20.9798   22.4396 C   0  0  0  0  0  0  0  0  0  0  0  0
   18.8566   21.7311   23.2405 H   0  0  0  0  0  0  0  0  0  0  0  0
   18.7950   21.5461   21.4983 H   0  0  0  0  0  0  0  0  0  0  0  0
   17.5036   20.1719   22.5727 C   0  0  0  0  0  0  0  0  0  0  0  0
   16.6581   20.8728   22.5322 H   0  0  0  0  0  0  0  0  0  0  0  0
   17.4490   19.6942   23.5601 H   0  0  0  0  0  0  0  0  0  0  0  0
   17.3204   19.1075   21.4671 C   0  0  0  0  0  0  0  0  0  0  0  0
   17.3901   19.5592   20.4690 H   0  0  0  0  0  0  0  0  0  0  0  0
   16.3353   18.6308   21.5517 H   0  0  0  0  0  0  0  0  0  0  0  0
   18.0771   18.3165   21.5405 H   0  0  0  0  0  0  0  0  0  0  0  0
   23.2386   17.1209   25.0331 C   0  0  0  0  0  0  0  0  0  0  0  0
   24.0190   17.8798   24.9436 H   0  0  0  0  0  0  0  0  0  0  0  0
   23.3858   16.5468   25.9506 H   0  0  0  0  0  0  0  0  0  0  0  0
   23.2719   16.4521   24.1702 H   0  0  0  0  0  0  0  0  0  0  0  0
  1  2  1  0  0  0  0
  1  3  1  0  0  0  0
  1  4  1  0  0  0  0
  4  5  1  0  0  0  0
  4  6  1  0  0  0  0
  4  7  1  0  0  0  0
  7  8  1  0  0  0  0
  7  9  1  0  0  0  0
  7 10  1  0  0  0  0
 10 11  1  0  0  0  0
 10 12  1  0  0  0  0
 10 13  1  0  0  0  0
 13 14  1  0  0  0  0
 13 15  1  0  0  0  0
 13 16  1  0  0  0  0
 16 17  1  0  0  0  0
 16 18  1  0  0  0  0
 16 19  1  0  0  0  0
 19 20  1  0  0  0  0
 19 21  1  0  0  0  0
 19 22  1  0  0  0  0
  1 23  1  0  0  0  0
 23 24  1  0  0  0  0
 23 25  1  0  0  0  0
 23 26  1  0  0  0  0
M  END
> <VConfSearch Rank>
715

> <Conf_Id>
30

> <Delta U+W>
0.910

> <U+W>
22.752

> <U>
71.870

> <W>
-49.118

> <W(PB)>
-51.409

> <W(SA)>
2.290

> <Valence>
2.682

> <Coulomb>
68.933

> <VdW>
0.255

> <VdW6>
-6.833

> <VdW12>
7.088

> <Bond>
0.205

> <Angle>
1.003

> <Pdih>
1.473

> <Idih>
0.000

> <Tether>
0.000

$$$$
VeraChem MOL file


 26 25  0  0  0  0  0  0  0  0999 V2000     
   19.9485   20.4862   25.7331 N   0  3  0  0  0  0  0  0  0  0  0  0
   20.2917   19.7677   26.3895 H   0  0  0  0  0  0  0  0  0  0  0  0
   18.9249   20.3602   25.6988 H   0  0  0  0  0  0  0  0  0  0  0  0
   20.5488   20.2682   24.3587 C   0  0  0  0  0  0  0  0  0  0  0  0
   21.6305   20.4020   24.4404 H   0  0  0  0  0  0  0  0  0  0  0  0
   20.1554   21.0417   23.6944 H   0  0  0  0  0  0  0  0  0  0  0  0
   20.2416   18.8779   23.7736 C   0  0  0  0  0  0  0  0  0  0  0  0
   20.6244   18.1035   24.4515 H   0  0  0  0  0  0  0  0  0  0  0  0
   19.1537   18.7479   23.7134 H   0  0  0  0  0  0  0  0  0  0  0  0
   20.8753   18.7037   22.3734 C   0  0  0  0  0  0  0  0  0  0  0  0
   21.9517   18.9146   22.4404 H   0  0  0  0  0  0  0  0  0  0  0  0
   20.4642   19.4530   21.6837 H   0  0  0  0  0  0  0  0  0  0  0  0
   20.6925   17.2820   21.7814 C   0  0  0  0  0  0  0  0  0  0  0  0
   21.2050   17.2363   20.8105 H   0  0  0  0  0  0  0  0  0  0  0  0
   21.2078   16.5572   22.4267 H   0  0  0  0  0  0  0  0  0  0  0  0
   19.2227   16.8263   21.5933 C   0  0  0  0  0  0  0  0  0  0  0  0
   18.7224   16.7448   22.5676 H   0  0  0  0  0  0  0  0  0  0  0  0
   19.2229   15.8116   21.1712 H   0  0  0  0  0  0  0  0  0  0  0  0
   18.4058   17.7514   20.6628 C   0  0  0  0  0  0  0  0  0  0  0  0
   18.2768   18.7494   21.0999 H   0  0  0  0  0  0  0  0  0  0  0  0
   17.4051   17.3354   20.4889 H   0  0  0  0  0  0  0  0  0  0  0  0
   18.8969   17.8635   19.6875 H   0  0  0  0  0  0  0  0  0  0  0  0
   20.2984   21.8799   26.2361 C   0  0  0  0  0  0  0  0  0  0  0  0
   19.8603   22.0238   27.2263 H   0  0  0  0  0  0  0  0  0  0  0  0
   21.3846   21.9780   26.2955 H   0  0  0  0  0  0  0  0  0  0  0  0
   19.8968   22.6229   25.5436 H   0  0  0  0  0  0  0  0  0  0  0  0
  1  2  1  0  0  0  0
  1  3  1  0  0  0  0
  1  4  1  0  0  0  0
  4  5  1  0  0  0  0
  4  6  1  0  0  0  0
  4  7  1  0  0  0  0
  7  8  1  0  0  0  0
  7  9  1  0  0  0  0
  7 10  1  0  0  0  0
 10 11  1  0  0  0  0
 10 12  1  0  0  0  0
 10 13  1  0  0  0  0
 13 14  1  0  0  0  0
 13 15  1  0  0  0  0
 13 16  1  0  0  0  0
 16 17  1  0  0  0  0
 16 18  1  0  0  0  0
 16 19  1  0  0  0  0
 19 20  1  0  0  0  0
 19 21  1  0  0  0  0
 19 22  1  0  0  0  0
  1 23  1  0  0  0  0
 23 24  1  0  0  0  0
 23 25  1  0  0  0  0
 23 26  1  0  0  0  0
M  END
> <VConfSearch Rank>
716

> <Conf_Id>
29

> <Delta U+W>
0.886

> <U+W>
22.729

> <U>
71.870

> <W>
-49.141

> <W(PB)>
-51.404

> <W(SA)>
2.262

> <Valence>
2.682

> <Coulomb>
68.933

> <VdW>
0.255

> <VdW6>
-6.833

> <VdW12>
7.088

> <Bond>
0.205

> <Angle>
1.003

> <Pdih>
1.473

> <Idih>
0.000

> <Tether>
0.000

$$$$
VeraChem MOL file


 26 25  0  0  0  0  0  0  0  0999 V2000     
   20.5111   17.2473   25.1238 N   0  3  0  0  0  0  0  0  0  0  0  0
   20.8998   17.5920   26.0154 H   0  0  0  0  0  0  0  0  0  0  0  0
   21.3290   17.0118   24.5405 H   0  0  0  0  0  0  0  0  0  0  0  0
   19.6884   18.3318   24.4582 C   0  0  0  0  0  0  0  0  0  0  0  0
   18.8425   18.5604   25.1113 H   0  0  0  0  0  0  0  0  0  0  0  0
   19.3004   17.9274   23.5202 H   0  0  0  0  0  0  0  0  0  0  0  0
   20.4885   19.6180   24.1774 C   0  0  0  0  0  0  0  0  0  0  0  0
   20.9037   19.9964   25.1208 H   0  0  0  0  0  0  0  0  0  0  0  0
   21.3468   19.3868   23.5337 H   0  0  0  0  0  0  0  0  0  0  0  0
   19.6251   20.7289   23.5297 C   0  0  0  0  0  0  0  0  0  0  0  0
   20.2461   21.6210   23.3732 H   0  0  0  0  0  0  0  0  0  0  0  0
   18.8455   21.0328   24.2419 H   0  0  0  0  0  0  0  0  0  0  0  0
   18.9447   20.3289   22.1925 C   0  0  0  0  0  0  0  0  0  0  0  0
   18.1980   19.5462   22.3827 H   0  0  0  0  0  0  0  0  0  0  0  0
   18.3775   21.1914   21.8162 H   0  0  0  0  0  0  0  0  0  0  0  0
   19.9095   19.8419   21.0814 C   0  0  0  0  0  0  0  0  0  0  0  0
   19.3169   19.5778   20.1943 H   0  0  0  0  0  0  0  0  0  0  0  0
   20.4119   18.9165   21.3931 H   0  0  0  0  0  0  0  0  0  0  0  0
   20.9637   20.8980   20.6786 C   0  0  0  0  0  0  0  0  0  0  0  0
   21.5650   20.5385   19.8337 H   0  0  0  0  0  0  0  0  0  0  0  0
   21.6518   21.1156   21.5049 H   0  0  0  0  0  0  0  0  0  0  0  0
   20.4845   21.8374   20.3739 H   0  0  0  0  0  0  0  0  0  0  0  0
   19.6495   16.0143   25.3581 C   0  0  0  0  0  0  0  0  0  0  0  0
   20.2536   15.2411   25.8381 H   0  0  0  0  0  0  0  0  0  0  0  0
   18.8099   16.2804   26.0040 H   0  0  0  0  0  0  0  0  0  0  0  0
   19.2771   15.6487   24.3986 H   0  0  0  0  0  0  0  0  0  0  0  0
  1  2  1  0  0  0  0
  1  3  1  0  0  0  0
  1  4  1  0  0  0  0
  4  5  1  0  0  0  0
  4  6  1  0  0  0  0
  4  7  1  0  0  0  0
  7  8  1  0  0  0  0
  7  9  1  0  0  0  0
  7 10  1  0  0  0  0
 10 11  1  0  0  0  0
 10 12  1  0  0  0  0
 10 13  1  0  0  0  0
 13 14  1  0  0  0  0
 13 15  1  0  0  0  0
 13 16  1  0  0  0  0
 16 17  1  0  0  0  0
 16 18  1  0  0  0  0
 16 19  1  0  0  0  0
 19 20  1  0  0  0  0
 19 21  1  0  0  0  0
 19 22  1  0  0  0  0
  1 23  1  0  0  0  0
 23 24  1  0  0  0  0
 23 25  1  0  0  0  0
 23 26  1  0  0  0  0
M  END
> <VConfSearch Rank>
717

> <Conf_Id>
82

> <Delta U+W>
1.026

> <U+W>
22.868

> <U>
72.455

> <W>
-49.586

> <W(PB)>
-51.821

> <W(SA)>
2.234

> <Valence>
2.908

> <Coulomb>
69.435

> <VdW>
0.112

> <VdW6>
-7.765

> <VdW12>
7.877

> <Bond>
0.233

> <Angle>
1.170

> <Pdih>
1.506

> <Idih>
0.000

> <Tether>
0.000

$$$$
VeraChem MOL file


 26 25  0  0  0  0  0  0  0  0999 V2000     
   19.0553   16.6824   23.0818 N   0  3  0  0  0  0  0  0  0  0  0  0
   20.0043   16.3805   22.8120 H   0  0  0  0  0  0  0  0  0  0  0  0
   18.4678   16.5185   22.2495 H   0  0  0  0  0  0  0  0  0  0  0  0
   19.0563   18.1550   23.4390 C   0  0  0  0  0  0  0  0  0  0  0  0
   19.6902   18.2839   24.3196 H   0  0  0  0  0  0  0  0  0  0  0  0
   18.0345   18.4369   23.7053 H   0  0  0  0  0  0  0  0  0  0  0  0
   19.5624   19.0584   22.2984 C   0  0  0  0  0  0  0  0  0  0  0  0
   20.5830   18.7664   22.0200 H   0  0  0  0  0  0  0  0  0  0  0  0
   18.9412   18.8952   21.4078 H   0  0  0  0  0  0  0  0  0  0  0  0
   19.5239   20.5626   22.6662 C   0  0  0  0  0  0  0  0  0  0  0  0
   18.4783   20.8635   22.8200 H   0  0  0  0  0  0  0  0  0  0  0  0
   19.8775   21.1510   21.8091 H   0  0  0  0  0  0  0  0  0  0  0  0
   20.3399   20.9453   23.9307 C   0  0  0  0  0  0  0  0  0  0  0  0
   20.2577   22.0299   24.0857 H   0  0  0  0  0  0  0  0  0  0  0  0
   19.8788   20.4859   24.8154 H   0  0  0  0  0  0  0  0  0  0  0  0
   21.8403   20.5586   23.8894 C   0  0  0  0  0  0  0  0  0  0  0  0
   21.9503   19.4669   23.8415 H   0  0  0  0  0  0  0  0  0  0  0  0
   22.3072   20.8661   24.8355 H   0  0  0  0  0  0  0  0  0  0  0  0
   22.6100   21.2125   22.7194 C   0  0  0  0  0  0  0  0  0  0  0  0
   22.2499   20.8507   21.7484 H   0  0  0  0  0  0  0  0  0  0  0  0
   23.6802   20.9771   22.7837 H   0  0  0  0  0  0  0  0  0  0  0  0
   22.5048   22.3050   22.7398 H   0  0  0  0  0  0  0  0  0  0  0  0
   18.5498   15.8640   24.2618 C   0  0  0  0  0  0  0  0  0  0  0  0
   17.5331   16.1782   24.5075 H   0  0  0  0  0  0  0  0  0  0  0  0
   18.5537   14.8057   23.9915 H   0  0  0  0  0  0  0  0  0  0  0  0
   19.2055   16.0279   25.1198 H   0  0  0  0  0  0  0  0  0  0  0  0
  1  2  1  0  0  0  0
  1  3  1  0  0  0  0
  1  4  1  0  0  0  0
  4  5  1  0  0  0  0
  4  6  1  0  0  0  0
  4  7  1  0  0  0  0
  7  8  1  0  0  0  0
  7  9  1  0  0  0  0
  7 10  1  0  0  0  0
 10 11  1  0  0  0  0
 10 12  1  0  0  0  0
 10 13  1  0  0  0  0
 13 14  1  0  0  0  0
 13 15  1  0  0  0  0
 13 16  1  0  0  0  0
 16 17  1  0  0  0  0
 16 18  1  0  0  0  0
 16 19  1  0  0  0  0
 19 20  1  0  0  0  0
 19 21  1  0  0  0  0
 19 22  1  0  0  0  0
  1 23  1  0  0  0  0
 23 24  1  0  0  0  0
 23 25  1  0  0  0  0
 23 26  1  0  0  0  0
M  END
> <VConfSearch Rank>
718

> <Conf_Id>
71

> <Delta U+W>
1.096

> <U+W>
22.938

> <U>
72.455

> <W>
-49.517

> <W(PB)>
-51.795

> <W(SA)>
2.278

> <Valence>
2.908

> <Coulomb>
69.435

> <VdW>
0.112

> <VdW6>
-7.766

> <VdW12>
7.877

> <Bond>
0.233

> <Angle>
1.170

> <Pdih>
1.506

> <Idih>
0.000

> <Tether>
0.000

$$$$
VeraChem MOL file


 26 25  0  0  0  0  0  0  0  0999 V2000     
   19.2041   17.8827   21.3134 N   0  3  0  0  0  0  0  0  0  0  0  0
   19.7548   18.7520   21.2518 H   0  0  0  0  0  0  0  0  0  0  0  0
   18.4485   17.9916   20.6184 H   0  0  0  0  0  0  0  0  0  0  0  0
   18.6033   17.7461   22.7034 C   0  0  0  0  0  0  0  0  0  0  0  0
   18.0454   16.8068   22.7329 H   0  0  0  0  0  0  0  0  0  0  0  0
   17.8888   18.5627   22.8319 H   0  0  0  0  0  0  0  0  0  0  0  0
   19.6225   17.7786   23.8650 C   0  0  0  0  0  0  0  0  0  0  0  0
   19.0767   17.6803   24.8127 H   0  0  0  0  0  0  0  0  0  0  0  0
   20.2749   16.8983   23.8006 H   0  0  0  0  0  0  0  0  0  0  0  0
   20.4947   19.0587   23.9089 C   0  0  0  0  0  0  0  0  0  0  0  0
   21.1052   19.1252   22.9985 H   0  0  0  0  0  0  0  0  0  0  0  0
   21.2011   18.9602   24.7432 H   0  0  0  0  0  0  0  0  0  0  0  0
   19.6656   20.3569   24.0824 C   0  0  0  0  0  0  0  0  0  0  0  0
   18.9378   20.4417   23.2649 H   0  0  0  0  0  0  0  0  0  0  0  0
   19.0811   20.3010   25.0111 H   0  0  0  0  0  0  0  0  0  0  0  0
   20.5285   21.6422   24.0925 C   0  0  0  0  0  0  0  0  0  0  0  0
   19.8600   22.5144   24.1036 H   0  0  0  0  0  0  0  0  0  0  0  0
   21.1059   21.7103   23.1599 H   0  0  0  0  0  0  0  0  0  0  0  0
   21.4844   21.7344   25.3039 C   0  0  0  0  0  0  0  0  0  0  0  0
   22.2554   20.9548   25.2708 H   0  0  0  0  0  0  0  0  0  0  0  0
   20.9350   21.6358   26.2492 H   0  0  0  0  0  0  0  0  0  0  0  0
   21.9980   22.7044   25.3145 H   0  0  0  0  0  0  0  0  0  0  0  0
   20.0621   16.6728   20.9624 C   0  0  0  0  0  0  0  0  0  0  0  0
   20.4507   16.7920   19.9487 H   0  0  0  0  0  0  0  0  0  0  0  0
   20.8922   16.6022   21.6682 H   0  0  0  0  0  0  0  0  0  0  0  0
   19.4495   15.7703   21.0188 H   0  0  0  0  0  0  0  0  0  0  0  0
  1  2  1  0  0  0  0
  1  3  1  0  0  0  0
  1  4  1  0  0  0  0
  4  5  1  0  0  0  0
  4  6  1  0  0  0  0
  4  7  1  0  0  0  0
  7  8  1  0  0  0  0
  7  9  1  0  0  0  0
  7 10  1  0  0  0  0
 10 11  1  0  0  0  0
 10 12  1  0  0  0  0
 10 13  1  0  0  0  0
 13 14  1  0  0  0  0
 13 15  1  0  0  0  0
 13 16  1  0  0  0  0
 16 17  1  0  0  0  0
 16 18  1  0  0  0  0
 16 19  1  0  0  0  0
 19 20  1  0  0  0  0
 19 21  1  0  0  0  0
 19 22  1  0  0  0  0
  1 23  1  0  0  0  0
 23 24  1  0  0  0  0
 23 25  1  0  0  0  0
 23 26  1  0  0  0  0
M  END
> <VConfSearch Rank>
719

> <Conf_Id>
84

> <Delta U+W>
1.456

> <U+W>
23.298

> <U>
73.042

> <W>
-49.744

> <W(PB)>
-51.966

> <W(SA)>
2.222

> <Valence>
2.938

> <Coulomb>
69.625

> <VdW>
0.478

> <VdW6>
-8.182

> <VdW12>
8.660

> <Bond>
0.253

> <Angle>
1.038

> <Pdih>
1.647

> <Idih>
0.000

> <Tether>
0.000

$$$$
VeraChem MOL file


 26 25  0  0  0  0  0  0  0  0999 V2000     
   18.9258   17.0400   22.8532 N   0  3  0  0  0  0  0  0  0  0  0  0
   19.0670   17.4462   23.7903 H   0  0  0  0  0  0  0  0  0  0  0  0
   19.4284   16.1390   22.8629 H   0  0  0  0  0  0  0  0  0  0  0  0
   19.5159   17.9549   21.7980 C   0  0  0  0  0  0  0  0  0  0  0  0
   18.9570   18.8935   21.8154 H   0  0  0  0  0  0  0  0  0  0  0  0
   19.3570   17.4837   20.8247 H   0  0  0  0  0  0  0  0  0  0  0  0
   21.0199   18.2399   21.9896 C   0  0  0  0  0  0  0  0  0  0  0  0
   21.5769   17.2963   21.9176 H   0  0  0  0  0  0  0  0  0  0  0  0
   21.3680   18.8643   21.1560 H   0  0  0  0  0  0  0  0  0  0  0  0
   21.3651   18.9383   23.3291 C   0  0  0  0  0  0  0  0  0  0  0  0
   22.4530   19.0857   23.3754 H   0  0  0  0  0  0  0  0  0  0  0  0
   21.1117   18.2798   24.1707 H   0  0  0  0  0  0  0  0  0  0  0  0
   20.6604   20.3054   23.5035 C   0  0  0  0  0  0  0  0  0  0  0  0
   20.8976   20.9522   22.6474 H   0  0  0  0  0  0  0  0  0  0  0  0
   19.5707   20.1698   23.5070 H   0  0  0  0  0  0  0  0  0  0  0  0
   21.0864   21.0081   24.8118 C   0  0  0  0  0  0  0  0  0  0  0  0
   22.1751   21.1589   24.8151 H   0  0  0  0  0  0  0  0  0  0  0  0
   20.8534   20.3647   25.6718 H   0  0  0  0  0  0  0  0  0  0  0  0
   20.3809   22.3700   24.9857 C   0  0  0  0  0  0  0  0  0  0  0  0
   20.6221   23.0484   24.1569 H   0  0  0  0  0  0  0  0  0  0  0  0
   20.6965   22.8537   25.9192 H   0  0  0  0  0  0  0  0  0  0  0  0
   19.2904   22.2484   25.0215 H   0  0  0  0  0  0  0  0  0  0  0  0
   17.4436   16.8238   22.5822 C   0  0  0  0  0  0  0  0  0  0  0  0
   17.3217   16.3657   21.5982 H   0  0  0  0  0  0  0  0  0  0  0  0
   17.0315   16.1645   23.3495 H   0  0  0  0  0  0  0  0  0  0  0  0
   16.9293   17.7870   22.6084 H   0  0  0  0  0  0  0  0  0  0  0  0
  1  2  1  0  0  0  0
  1  3  1  0  0  0  0
  1  4  1  0  0  0  0
  4  5  1  0  0  0  0
  4  6  1  0  0  0  0
  4  7  1  0  0  0  0
  7  8  1  0  0  0  0
  7  9  1  0  0  0  0
  7 10  1  0  0  0  0
 10 11  1  0  0  0  0
 10 12  1  0  0  0  0
 10 13  1  0  0  0  0
 13 14  1  0  0  0  0
 13 15  1  0  0  0  0
 13 16  1  0  0  0  0
 16 17  1  0  0  0  0
 16 18  1  0  0  0  0
 16 19  1  0  0  0  0
 19 20  1  0  0  0  0
 19 21  1  0  0  0  0
 19 22  1  0  0  0  0
  1 23  1  0  0  0  0
 23 24  1  0  0  0  0
 23 25  1  0  0  0  0
 23 26  1  0  0  0  0
M  END
> <VConfSearch Rank>
720

> <Conf_Id>
73

> <Delta U+W>
0.884

> <U+W>
22.726

> <U>
71.905

> <W>
-49.179

> <W(PB)>
-51.494

> <W(SA)>
2.315

> <Valence>
2.125

> <Coulomb>
69.686

> <VdW>
0.093

> <VdW6>
-6.766

> <VdW12>
6.859

> <Bond>
0.169

> <Angle>
0.621

> <Pdih>
1.336

> <Idih>
0.000

> <Tether>
0.000

$$$$
VeraChem MOL file


 26 25  0  0  0  0  0  0  0  0999 V2000     
   23.2503   19.2897   22.8669 N   0  3  0  0  0  0  0  0  0  0  0  0
   23.2687   18.8037   21.9568 H   0  0  0  0  0  0  0  0  0  0  0  0
   23.4943   18.5716   23.5666 H   0  0  0  0  0  0  0  0  0  0  0  0
   21.8633   19.8360   23.1401 C   0  0  0  0  0  0  0  0  0  0  0  0
   21.6410   20.5843   22.3751 H   0  0  0  0  0  0  0  0  0  0  0  0
   21.8846   20.3338   24.1128 H   0  0  0  0  0  0  0  0  0  0  0  0
   20.7705   18.7516   23.1370 C   0  0  0  0  0  0  0  0  0  0  0  0
   20.7637   18.2430   22.1637 H   0  0  0  0  0  0  0  0  0  0  0  0
   21.0065   17.9934   23.8956 H   0  0  0  0  0  0  0  0  0  0  0  0
   19.3761   19.3537   23.4192 C   0  0  0  0  0  0  0  0  0  0  0  0
   19.1460   20.1156   22.6613 H   0  0  0  0  0  0  0  0  0  0  0  0
   19.3886   19.8665   24.3912 H   0  0  0  0  0  0  0  0  0  0  0  0
   18.2702   18.2736   23.4188 C   0  0  0  0  0  0  0  0  0  0  0  0
   18.2575   17.7608   22.4470 H   0  0  0  0  0  0  0  0  0  0  0  0
   18.5001   17.5118   24.1766 H   0  0  0  0  0  0  0  0  0  0  0  0
   16.8758   18.8761   23.7011 C   0  0  0  0  0  0  0  0  0  0  0  0
   16.6400   19.6372   22.9441 H   0  0  0  0  0  0  0  0  0  0  0  0
   16.8825   19.3881   24.6736 H   0  0  0  0  0  0  0  0  0  0  0  0
   15.7741   17.7947   23.6998 C   0  0  0  0  0  0  0  0  0  0  0  0
   14.7920   18.2415   23.9019 H   0  0  0  0  0  0  0  0  0  0  0  0
   15.9640   17.0365   24.4707 H   0  0  0  0  0  0  0  0  0  0  0  0
   15.7196   17.2875   22.7277 H   0  0  0  0  0  0  0  0  0  0  0  0
   24.2669   20.4229   22.8878 C   0  0  0  0  0  0  0  0  0  0  0  0
   24.2527   20.9001   23.8702 H   0  0  0  0  0  0  0  0  0  0  0  0
   25.2610   20.0160   22.6898 H   0  0  0  0  0  0  0  0  0  0  0  0
   24.0070   21.1528   22.1180 H   0  0  0  0  0  0  0  0  0  0  0  0
  1  2  1  0  0  0  0
  1  3  1  0  0  0  0
  1  4  1  0  0  0  0
  4  5  1  0  0  0  0
  4  6  1  0  0  0  0
  4  7  1  0  0  0  0
  7  8  1  0  0  0  0
  7  9  1  0  0  0  0
  7 10  1  0  0  0  0
 10 11  1  0  0  0  0
 10 12  1  0  0  0  0
 10 13  1  0  0  0  0
 13 14  1  0  0  0  0
 13 15  1  0  0  0  0
 13 16  1  0  0  0  0
 16 17  1  0  0  0  0
 16 18  1  0  0  0  0
 16 19  1  0  0  0  0
 19 20  1  0  0  0  0
 19 21  1  0  0  0  0
 19 22  1  0  0  0  0
  1 23  1  0  0  0  0
 23 24  1  0  0  0  0
 23 25  1  0  0  0  0
 23 26  1  0  0  0  0
M  END
> <VConfSearch Rank>
721

> <Conf_Id>
11

> <Delta U+W>
0.000

> <U+W>
21.842

> <U>
70.357

> <W>
-48.515

> <W(PB)>
-50.856

> <W(SA)>
2.341

> <Valence>
1.714

> <Coulomb>
68.480

> <VdW>
0.163

> <VdW6>
-5.268

> <VdW12>
5.431

> <Bond>
0.126

> <Angle>
0.350

> <Pdih>
1.238

> <Idih>
0.000

> <Tether>
0.000

$$$$
VeraChem MOL file


 26 25  0  0  0  0  0  0  0  0999 V2000     
   16.7886   18.3828   24.0845 N   0  3  0  0  0  0  0  0  0  0  0  0
   15.9136   18.1043   23.6124 H   0  0  0  0  0  0  0  0  0  0  0  0
   16.6038   19.3298   24.4500 H   0  0  0  0  0  0  0  0  0  0  0  0
   17.9218   18.4219   23.0728 C   0  0  0  0  0  0  0  0  0  0  0  0
   17.5693   18.9972   22.2129 H   0  0  0  0  0  0  0  0  0  0  0  0
   18.1121   17.3982   22.7407 H   0  0  0  0  0  0  0  0  0  0  0  0
   19.2269   19.0544   23.5973 C   0  0  0  0  0  0  0  0  0  0  0  0
   19.0164   20.0639   23.9744 H   0  0  0  0  0  0  0  0  0  0  0  0
   19.6100   18.4682   24.4426 H   0  0  0  0  0  0  0  0  0  0  0  0
   20.3026   19.1262   22.4910 C   0  0  0  0  0  0  0  0  0  0  0  0
   19.9183   19.7115   21.6439 H   0  0  0  0  0  0  0  0  0  0  0  0
   20.5057   18.1149   22.1119 H   0  0  0  0  0  0  0  0  0  0  0  0
   21.6162   19.7598   23.0034 C   0  0  0  0  0  0  0  0  0  0  0  0
   21.4132   20.7710   23.3826 H   0  0  0  0  0  0  0  0  0  0  0  0
   22.0008   19.1745   23.8502 H   0  0  0  0  0  0  0  0  0  0  0  0
   22.6918   19.8316   21.8966 C   0  0  0  0  0  0  0  0  0  0  0  0
   22.3128   20.4183   21.0480 H   0  0  0  0  0  0  0  0  0  0  0  0
   22.9003   18.8220   21.5155 H   0  0  0  0  0  0  0  0  0  0  0  0
   24.0020   20.4646   22.4119 C   0  0  0  0  0  0  0  0  0  0  0  0
   24.7529   20.5068   21.6123 H   0  0  0  0  0  0  0  0  0  0  0  0
   24.4242   19.8801   23.2397 H   0  0  0  0  0  0  0  0  0  0  0  0
   23.8321   21.4889   22.7685 H   0  0  0  0  0  0  0  0  0  0  0  0
   17.0948   17.4130   25.2204 C   0  0  0  0  0  0  0  0  0  0  0  0
   17.9847   17.7512   25.7550 H   0  0  0  0  0  0  0  0  0  0  0  0
   16.2442   17.3849   25.9050 H   0  0  0  0  0  0  0  0  0  0  0  0
   17.2672   16.4175   24.8055 H   0  0  0  0  0  0  0  0  0  0  0  0
  1  2  1  0  0  0  0
  1  3  1  0  0  0  0
  1  4  1  0  0  0  0
  4  5  1  0  0  0  0
  4  6  1  0  0  0  0
  4  7  1  0  0  0  0
  7  8  1  0  0  0  0
  7  9  1  0  0  0  0
  7 10  1  0  0  0  0
 10 11  1  0  0  0  0
 10 12  1  0  0  0  0
 10 13  1  0  0  0  0
 13 14  1  0  0  0  0
 13 15  1  0  0  0  0
 13 16  1  0  0  0  0
 16 17  1  0  0  0  0
 16 18  1  0  0  0  0
 16 19  1  0  0  0  0
 19 20  1  0  0  0  0
 19 21  1  0  0  0  0
 19 22  1  0  0  0  0
  1 23  1  0  0  0  0
 23 24  1  0  0  0  0
 23 25  1  0  0  0  0
 23 26  1  0  0  0  0
M  END
> <VConfSearch Rank>
722

> <Conf_Id>
102

> <Delta U+W>
0.121

> <U+W>
21.963

> <U>
70.745

> <W>
-48.782

> <W(PB)>
-51.111

> <W(SA)>
2.329

> <Valence>
1.993

> <Coulomb>
68.323

> <VdW>
0.429

> <VdW6>
-5.973

> <VdW12>
6.402

> <Bond>
0.161

> <Angle>
0.472

> <Pdih>
1.360

> <Idih>
0.000

> <Tether>
0.000

$$$$
VeraChem MOL file


 26 25  0  0  0  0  0  0  0  0999 V2000     
   17.0467   20.3911   22.7204 N   0  3  0  0  0  0  0  0  0  0  0  0
   16.7788   19.6850   22.0175 H   0  0  0  0  0  0  0  0  0  0  0  0
   16.6409   21.2760   22.3767 H   0  0  0  0  0  0  0  0  0  0  0  0
   18.5595   20.5180   22.7876 C   0  0  0  0  0  0  0  0  0  0  0  0
   18.8022   21.2436   23.5680 H   0  0  0  0  0  0  0  0  0  0  0  0
   18.8938   20.9255   21.8300 H   0  0  0  0  0  0  0  0  0  0  0  0
   19.3021   19.1928   23.0543 C   0  0  0  0  0  0  0  0  0  0  0  0
   18.9993   18.7871   24.0283 H   0  0  0  0  0  0  0  0  0  0  0  0
   19.0140   18.4546   22.2941 H   0  0  0  0  0  0  0  0  0  0  0  0
   20.8339   19.3909   23.0326 C   0  0  0  0  0  0  0  0  0  0  0  0
   21.1173   20.1350   23.7902 H   0  0  0  0  0  0  0  0  0  0  0  0
   21.1367   19.7988   22.0581 H   0  0  0  0  0  0  0  0  0  0  0  0
   21.5906   18.0693   23.2975 C   0  0  0  0  0  0  0  0  0  0  0  0
   21.2883   17.6615   24.2721 H   0  0  0  0  0  0  0  0  0  0  0  0
   21.3071   17.3252   22.5403 H   0  0  0  0  0  0  0  0  0  0  0  0
   23.1227   18.2678   23.2757 C   0  0  0  0  0  0  0  0  0  0  0  0
   23.4118   19.0099   24.0332 H   0  0  0  0  0  0  0  0  0  0  0  0
   23.4307   18.6733   22.3016 H   0  0  0  0  0  0  0  0  0  0  0  0
   23.8749   16.9462   23.5408 C   0  0  0  0  0  0  0  0  0  0  0  0
   23.6136   16.5333   24.5239 H   0  0  0  0  0  0  0  0  0  0  0  0
   24.9606   17.1073   23.5213 H   0  0  0  0  0  0  0  0  0  0  0  0
   23.6325   16.1940   22.7788 H   0  0  0  0  0  0  0  0  0  0  0  0
   16.4596   20.0482   24.0850 C   0  0  0  0  0  0  0  0  0  0  0  0
   16.7437   20.8212   24.8023 H   0  0  0  0  0  0  0  0  0  0  0  0
   15.3713   20.0024   24.0042 H   0  0  0  0  0  0  0  0  0  0  0  0
   16.8441   19.0798   24.4114 H   0  0  0  0  0  0  0  0  0  0  0  0
  1  2  1  0  0  0  0
  1  3  1  0  0  0  0
  1  4  1  0  0  0  0
  4  5  1  0  0  0  0
  4  6  1  0  0  0  0
  4  7  1  0  0  0  0
  7  8  1  0  0  0  0
  7  9  1  0  0  0  0
  7 10  1  0  0  0  0
 10 11  1  0  0  0  0
 10 12  1  0  0  0  0
 10 13  1  0  0  0  0
 13 14  1  0  0  0  0
 13 15  1  0  0  0  0
 13 16  1  0  0  0  0
 16 17  1  0  0  0  0
 16 18  1  0  0  0  0
 16 19  1  0  0  0  0
 19 20  1  0  0  0  0
 19 21  1  0  0  0  0
 19 22  1  0  0  0  0
  1 23  1  0  0  0  0
 23 24  1  0  0  0  0
 23 25  1  0  0  0  0
 23 26  1  0  0  0  0
M  END
> <VConfSearch Rank>
723

> <Conf_Id>
37

> <Delta U+W>
0.125

> <U+W>
21.967

> <U>
70.745

> <W>
-48.778

> <W(PB)>
-51.115

> <W(SA)>
2.337

> <Valence>
1.993

> <Coulomb>
68.323

> <VdW>
0.429

> <VdW6>
-5.973

> <VdW12>
6.403

> <Bond>
0.161

> <Angle>
0.472

> <Pdih>
1.360

> <Idih>
0.000

> <Tether>
0.000

$$$$
VeraChem MOL file


 26 25  0  0  0  0  0  0  0  0999 V2000     
   22.9743   19.5683   23.8851 N   0  3  0  0  0  0  0  0  0  0  0  0
   23.1301   20.5401   24.1951 H   0  0  0  0  0  0  0  0  0  0  0  0
   23.3052   19.5354   22.9082 H   0  0  0  0  0  0  0  0  0  0  0  0
   21.4987   19.2290   23.9491 C   0  0  0  0  0  0  0  0  0  0  0  0
   21.1868   19.2854   24.9950 H   0  0  0  0  0  0  0  0  0  0  0  0
   21.3799   18.1977   23.6089 H   0  0  0  0  0  0  0  0  0  0  0  0
   20.6215   20.1653   23.0957 C   0  0  0  0  0  0  0  0  0  0  0  0
   20.7870   21.2021   23.4175 H   0  0  0  0  0  0  0  0  0  0  0  0
   20.9341   20.1089   22.0445 H   0  0  0  0  0  0  0  0  0  0  0  0
   19.1128   19.8411   23.2076 C   0  0  0  0  0  0  0  0  0  0  0  0
   18.5542   20.6155   22.6659 H   0  0  0  0  0  0  0  0  0  0  0  0
   18.8004   19.9095   24.2588 H   0  0  0  0  0  0  0  0  0  0  0  0
   18.7470   18.4447   22.6424 C   0  0  0  0  0  0  0  0  0  0  0  0
   19.0411   18.3840   21.5855 H   0  0  0  0  0  0  0  0  0  0  0  0
   19.3241   17.6727   23.1683 H   0  0  0  0  0  0  0  0  0  0  0  0
   17.2444   18.0986   22.7802 C   0  0  0  0  0  0  0  0  0  0  0  0
   16.9470   18.1465   23.8371 H   0  0  0  0  0  0  0  0  0  0  0  0
   17.0933   17.0562   22.4663 H   0  0  0  0  0  0  0  0  0  0  0  0
   16.3214   19.0089   21.9381 C   0  0  0  0  0  0  0  0  0  0  0  0
   16.3399   20.0455   22.2962 H   0  0  0  0  0  0  0  0  0  0  0  0
   15.2823   18.6599   21.9953 H   0  0  0  0  0  0  0  0  0  0  0  0
   16.6188   19.0040   20.8814 H   0  0  0  0  0  0  0  0  0  0  0  0
   23.7668   18.5982   24.7503 C   0  0  0  0  0  0  0  0  0  0  0  0
   23.6129   17.5811   24.3830 H   0  0  0  0  0  0  0  0  0  0  0  0
   24.8274   18.8536   24.6954 H   0  0  0  0  0  0  0  0  0  0  0  0
   23.4220   18.6747   25.7839 H   0  0  0  0  0  0  0  0  0  0  0  0
  1  2  1  0  0  0  0
  1  3  1  0  0  0  0
  1  4  1  0  0  0  0
  4  5  1  0  0  0  0
  4  6  1  0  0  0  0
  4  7  1  0  0  0  0
  7  8  1  0  0  0  0
  7  9  1  0  0  0  0
  7 10  1  0  0  0  0
 10 11  1  0  0  0  0
 10 12  1  0  0  0  0
 10 13  1  0  0  0  0
 13 14  1  0  0  0  0
 13 15  1  0  0  0  0
 13 16  1  0  0  0  0
 16 17  1  0  0  0  0
 16 18  1  0  0  0  0
 16 19  1  0  0  0  0
 19 20  1  0  0  0  0
 19 21  1  0  0  0  0
 19 22  1  0  0  0  0
  1 23  1  0  0  0  0
 23 24  1  0  0  0  0
 23 25  1  0  0  0  0
 23 26  1  0  0  0  0
M  END
> <VConfSearch Rank>
724

> <Conf_Id>
137

> <Delta U+W>
1.038

> <U+W>
22.880

> <U>
71.810

> <W>
-48.930

> <W(PB)>
-51.257

> <W(SA)>
2.327

> <Valence>
2.568

> <Coulomb>
68.877

> <VdW>
0.364

> <VdW6>
-6.470

> <VdW12>
6.834

> <Bond>
0.191

> <Angle>
0.752

> <Pdih>
1.626

> <Idih>
0.000

> <Tether>
0.000

$$$$
VeraChem MOL file


 26 25  0  0  0  0  0  0  0  0999 V2000     
   18.8604   21.7440   23.7089 N   0  3  0  0  0  0  0  0  0  0  0  0
   19.4479   22.0735   22.9271 H   0  0  0  0  0  0  0  0  0  0  0  0
   19.3960   21.9588   24.5644 H   0  0  0  0  0  0  0  0  0  0  0  0
   18.6303   20.2502   23.5971 C   0  0  0  0  0  0  0  0  0  0  0  0
   18.0694   20.0652   22.6776 H   0  0  0  0  0  0  0  0  0  0  0  0
   18.0132   19.9419   24.4448 H   0  0  0  0  0  0  0  0  0  0  0  0
   19.9346   19.4325   23.5815 C   0  0  0  0  0  0  0  0  0  0  0  0
   20.5534   19.7639   22.7381 H   0  0  0  0  0  0  0  0  0  0  0  0
   20.5023   19.6341   24.4996 H   0  0  0  0  0  0  0  0  0  0  0  0
   19.6471   17.9167   23.4689 C   0  0  0  0  0  0  0  0  0  0  0  0
   19.1220   17.7080   22.5264 H   0  0  0  0  0  0  0  0  0  0  0  0
   18.9602   17.6233   24.2751 H   0  0  0  0  0  0  0  0  0  0  0  0
   20.9174   17.0355   23.5615 C   0  0  0  0  0  0  0  0  0  0  0  0
   21.4331   17.2310   24.5119 H   0  0  0  0  0  0  0  0  0  0  0  0
   20.6081   15.9815   23.5908 H   0  0  0  0  0  0  0  0  0  0  0  0
   21.8999   17.2381   22.3835 C   0  0  0  0  0  0  0  0  0  0  0  0
   22.2840   18.2668   22.3819 H   0  0  0  0  0  0  0  0  0  0  0  0
   21.3719   17.0934   21.4305 H   0  0  0  0  0  0  0  0  0  0  0  0
   23.0914   16.2597   22.4613 C   0  0  0  0  0  0  0  0  0  0  0  0
   23.6577   16.4005   23.3911 H   0  0  0  0  0  0  0  0  0  0  0  0
   23.7793   16.4188   21.6207 H   0  0  0  0  0  0  0  0  0  0  0  0
   22.7500   15.2170   22.4236 H   0  0  0  0  0  0  0  0  0  0  0  0
   17.5247   22.4747   23.7176 C   0  0  0  0  0  0  0  0  0  0  0  0
   16.9347   22.1342   24.5714 H   0  0  0  0  0  0  0  0  0  0  0  0
   17.7046   23.5490   23.7985 H   0  0  0  0  0  0  0  0  0  0  0  0
   16.9912   22.2589   22.7893 H   0  0  0  0  0  0  0  0  0  0  0  0
  1  2  1  0  0  0  0
  1  3  1  0  0  0  0
  1  4  1  0  0  0  0
  4  5  1  0  0  0  0
  4  6  1  0  0  0  0
  4  7  1  0  0  0  0
  7  8  1  0  0  0  0
  7  9  1  0  0  0  0
  7 10  1  0  0  0  0
 10 11  1  0  0  0  0
 10 12  1  0  0  0  0
 10 13  1  0  0  0  0
 13 14  1  0  0  0  0
 13 15  1  0  0  0  0
 13 16  1  0  0  0  0
 16 17  1  0  0  0  0
 16 18  1  0  0  0  0
 16 19  1  0  0  0  0
 19 20  1  0  0  0  0
 19 21  1  0  0  0  0
 19 22  1  0  0  0  0
  1 23  1  0  0  0  0
 23 24  1  0  0  0  0
 23 25  1  0  0  0  0
 23 26  1  0  0  0  0
M  END
> <VConfSearch Rank>
725

> <Conf_Id>
35

> <Delta U+W>
0.670

> <U+W>
22.512

> <U>
71.348

> <W>
-48.837

> <W(PB)>
-51.150

> <W(SA)>
2.313

> <Valence>
2.262

> <Coulomb>
68.807

> <VdW>
0.280

> <VdW6>
-5.915

> <VdW12>
6.195

> <Bond>
0.164

> <Angle>
0.622

> <Pdih>
1.475

> <Idih>
0.000

> <Tether>
0.000

$$$$
VeraChem MOL file


 26 25  0  0  0  0  0  0  0  0999 V2000     
   19.1900   21.7873   24.1282 N   0  3  0  0  0  0  0  0  0  0  0  0
   18.4335   21.8711   23.4314 H   0  0  0  0  0  0  0  0  0  0  0  0
   20.0389   22.1338   23.6548 H   0  0  0  0  0  0  0  0  0  0  0  0
   19.3709   20.3377   24.5320 C   0  0  0  0  0  0  0  0  0  0  0  0
   18.4503   20.0086   25.0205 H   0  0  0  0  0  0  0  0  0  0  0  0
   20.1833   20.2918   25.2616 H   0  0  0  0  0  0  0  0  0  0  0  0
   19.6877   19.4099   23.3451 C   0  0  0  0  0  0  0  0  0  0  0  0
   18.8767   19.4718   22.6073 H   0  0  0  0  0  0  0  0  0  0  0  0
   20.6026   19.7612   22.8518 H   0  0  0  0  0  0  0  0  0  0  0  0
   19.8605   17.9437   23.8075 C   0  0  0  0  0  0  0  0  0  0  0  0
   18.9666   17.6397   24.3699 H   0  0  0  0  0  0  0  0  0  0  0  0
   20.7038   17.8731   24.5085 H   0  0  0  0  0  0  0  0  0  0  0  0
   20.0697   16.9458   22.6416 C   0  0  0  0  0  0  0  0  0  0  0  0
   20.0644   15.9262   23.0513 H   0  0  0  0  0  0  0  0  0  0  0  0
   19.2179   17.0035   21.9499 H   0  0  0  0  0  0  0  0  0  0  0  0
   21.3890   17.1680   21.8644 C   0  0  0  0  0  0  0  0  0  0  0  0
   22.2372   17.1621   22.5633 H   0  0  0  0  0  0  0  0  0  0  0  0
   21.3828   18.1530   21.3793 H   0  0  0  0  0  0  0  0  0  0  0  0
   21.6057   16.0823   20.7886 C   0  0  0  0  0  0  0  0  0  0  0  0
   21.6593   15.0831   21.2403 H   0  0  0  0  0  0  0  0  0  0  0  0
   22.5436   16.2565   20.2454 H   0  0  0  0  0  0  0  0  0  0  0  0
   20.7875   16.0831   20.0566 H   0  0  0  0  0  0  0  0  0  0  0  0
   18.8809   22.6324   25.3562 C   0  0  0  0  0  0  0  0  0  0  0  0
   19.7093   22.5543   26.0638 H   0  0  0  0  0  0  0  0  0  0  0  0
   18.7529   23.6736   25.0516 H   0  0  0  0  0  0  0  0  0  0  0  0
   17.9618   22.2684   25.8207 H   0  0  0  0  0  0  0  0  0  0  0  0
  1  2  1  0  0  0  0
  1  3  1  0  0  0  0
  1  4  1  0  0  0  0
  4  5  1  0  0  0  0
  4  6  1  0  0  0  0
  4  7  1  0  0  0  0
  7  8  1  0  0  0  0
  7  9  1  0  0  0  0
  7 10  1  0  0  0  0
 10 11  1  0  0  0  0
 10 12  1  0  0  0  0
 10 13  1  0  0  0  0
 13 14  1  0  0  0  0
 13 15  1  0  0  0  0
 13 16  1  0  0  0  0
 16 17  1  0  0  0  0
 16 18  1  0  0  0  0
 16 19  1  0  0  0  0
 19 20  1  0  0  0  0
 19 21  1  0  0  0  0
 19 22  1  0  0  0  0
  1 23  1  0  0  0  0
 23 24  1  0  0  0  0
 23 25  1  0  0  0  0
 23 26  1  0  0  0  0
M  END
> <VConfSearch Rank>
726

> <Conf_Id>
36

> <Delta U+W>
0.662

> <U+W>
22.504

> <U>
71.348

> <W>
-48.844

> <W(PB)>
-51.157

> <W(SA)>
2.313

> <Valence>
2.262

> <Coulomb>
68.807

> <VdW>
0.280

> <VdW6>
-5.916

> <VdW12>
6.195

> <Bond>
0.164

> <Angle>
0.622

> <Pdih>
1.475

> <Idih>
0.000

> <Tether>
0.000

$$$$
VeraChem MOL file


 26 25  0  0  0  0  0  0  0  0999 V2000     
   21.6714   21.1402   21.6681 N   0  3  0  0  0  0  0  0  0  0  0  0
   22.5996   20.9404   22.0723 H   0  0  0  0  0  0  0  0  0  0  0  0
   21.4897   22.1344   21.8765 H   0  0  0  0  0  0  0  0  0  0  0  0
   20.6180   20.2681   22.3209 C   0  0  0  0  0  0  0  0  0  0  0  0
   20.8511   19.2282   22.0799 H   0  0  0  0  0  0  0  0  0  0  0  0
   19.6522   20.5176   21.8743 H   0  0  0  0  0  0  0  0  0  0  0  0
   20.5431   20.4450   23.8497 C   0  0  0  0  0  0  0  0  0  0  0  0
   21.5140   20.1960   24.2984 H   0  0  0  0  0  0  0  0  0  0  0  0
   20.3522   21.5017   24.0797 H   0  0  0  0  0  0  0  0  0  0  0  0
   19.4344   19.5822   24.4975 C   0  0  0  0  0  0  0  0  0  0  0  0
   18.4606   19.8529   24.0664 H   0  0  0  0  0  0  0  0  0  0  0  0
   19.3785   19.8260   25.5675 H   0  0  0  0  0  0  0  0  0  0  0  0
   19.6735   18.0616   24.3340 C   0  0  0  0  0  0  0  0  0  0  0  0
   19.6825   17.7952   23.2686 H   0  0  0  0  0  0  0  0  0  0  0  0
   20.6621   17.7999   24.7359 H   0  0  0  0  0  0  0  0  0  0  0  0
   18.5894   17.2293   25.0545 C   0  0  0  0  0  0  0  0  0  0  0  0
   17.5979   17.4877   24.6568 H   0  0  0  0  0  0  0  0  0  0  0  0
   18.5771   17.4815   26.1242 H   0  0  0  0  0  0  0  0  0  0  0  0
   18.8279   15.7131   24.8894 C   0  0  0  0  0  0  0  0  0  0  0  0
   18.8107   15.4235   23.8306 H   0  0  0  0  0  0  0  0  0  0  0  0
   18.0488   15.1394   25.4079 H   0  0  0  0  0  0  0  0  0  0  0  0
   19.7986   15.4180   25.3087 H   0  0  0  0  0  0  0  0  0  0  0  0
   21.6812   20.9028   20.1644 C   0  0  0  0  0  0  0  0  0  0  0  0
   20.6998   21.1522   19.7550 H   0  0  0  0  0  0  0  0  0  0  0  0
   22.4438   21.5369   19.7066 H   0  0  0  0  0  0  0  0  0  0  0  0
   21.9083   19.8527   19.9680 H   0  0  0  0  0  0  0  0  0  0  0  0
  1  2  1  0  0  0  0
  1  3  1  0  0  0  0
  1  4  1  0  0  0  0
  4  5  1  0  0  0  0
  4  6  1  0  0  0  0
  4  7  1  0  0  0  0
  7  8  1  0  0  0  0
  7  9  1  0  0  0  0
  7 10  1  0  0  0  0
 10 11  1  0  0  0  0
 10 12  1  0  0  0  0
 10 13  1  0  0  0  0
 13 14  1  0  0  0  0
 13 15  1  0  0  0  0
 13 16  1  0  0  0  0
 16 17  1  0  0  0  0
 16 18  1  0  0  0  0
 16 19  1  0  0  0  0
 19 20  1  0  0  0  0
 19 21  1  0  0  0  0
 19 22  1  0  0  0  0
  1 23  1  0  0  0  0
 23 24  1  0  0  0  0
 23 25  1  0  0  0  0
 23 26  1  0  0  0  0
M  END
> <VConfSearch Rank>
727

> <Conf_Id>
46

> <Delta U+W>
0.496

> <U+W>
22.338

> <U>
71.138

> <W>
-48.799

> <W(PB)>
-51.136

> <W(SA)>
2.337

> <Valence>
2.016

> <Coulomb>
68.932

> <VdW>
0.190

> <VdW6>
-5.902

> <VdW12>
6.092

> <Bond>
0.149

> <Angle>
0.477

> <Pdih>
1.390

> <Idih>
0.000

> <Tether>
0.000

$$$$
VeraChem MOL file


 26 25  0  0  0  0  0  0  0  0999 V2000     
   17.3853   17.8337   24.2472 N   0  3  0  0  0  0  0  0  0  0  0  0
   17.2569   16.8265   24.0633 H   0  0  0  0  0  0  0  0  0  0  0  0
   16.7611   18.3159   23.5817 H   0  0  0  0  0  0  0  0  0  0  0  0
   18.8257   18.2318   23.9956 C   0  0  0  0  0  0  0  0  0  0  0  0
   19.4523   17.6932   24.7110 H   0  0  0  0  0  0  0  0  0  0  0  0
   18.9148   19.3021   24.1964 H   0  0  0  0  0  0  0  0  0  0  0  0
   19.2994   17.9289   22.5610 C   0  0  0  0  0  0  0  0  0  0  0  0
   19.1636   16.8585   22.3568 H   0  0  0  0  0  0  0  0  0  0  0  0
   18.6687   18.4687   21.8421 H   0  0  0  0  0  0  0  0  0  0  0  0
   20.7837   18.2995   22.3311 C   0  0  0  0  0  0  0  0  0  0  0  0
   21.0757   17.9741   21.3230 H   0  0  0  0  0  0  0  0  0  0  0  0
   21.4146   17.7372   23.0335 H   0  0  0  0  0  0  0  0  0  0  0  0
   21.0619   19.8151   22.4772 C   0  0  0  0  0  0  0  0  0  0  0  0
   20.4058   20.3762   21.7975 H   0  0  0  0  0  0  0  0  0  0  0  0
   20.8207   20.1448   23.4967 H   0  0  0  0  0  0  0  0  0  0  0  0
   22.5361   20.1604   22.1695 C   0  0  0  0  0  0  0  0  0  0  0  0
   22.7867   19.8425   21.1477 H   0  0  0  0  0  0  0  0  0  0  0  0
   23.1973   19.6010   22.8462 H   0  0  0  0  0  0  0  0  0  0  0  0
   22.8128   21.6719   22.3171 C   0  0  0  0  0  0  0  0  0  0  0  0
   22.1898   22.2566   21.6279 H   0  0  0  0  0  0  0  0  0  0  0  0
   23.8638   21.8971   22.0943 H   0  0  0  0  0  0  0  0  0  0  0  0
   22.6049   22.0136   23.3395 H   0  0  0  0  0  0  0  0  0  0  0  0
   16.9982   18.1685   25.6810 C   0  0  0  0  0  0  0  0  0  0  0  0
   15.9591   17.8767   25.8489 H   0  0  0  0  0  0  0  0  0  0  0  0
   17.6501   17.6218   26.3659 H   0  0  0  0  0  0  0  0  0  0  0  0
   17.1102   19.2430   25.8418 H   0  0  0  0  0  0  0  0  0  0  0  0
  1  2  1  0  0  0  0
  1  3  1  0  0  0  0
  1  4  1  0  0  0  0
  4  5  1  0  0  0  0
  4  6  1  0  0  0  0
  4  7  1  0  0  0  0
  7  8  1  0  0  0  0
  7  9  1  0  0  0  0
  7 10  1  0  0  0  0
 10 11  1  0  0  0  0
 10 12  1  0  0  0  0
 10 13  1  0  0  0  0
 13 14  1  0  0  0  0
 13 15  1  0  0  0  0
 13 16  1  0  0  0  0
 16 17  1  0  0  0  0
 16 18  1  0  0  0  0
 16 19  1  0  0  0  0
 19 20  1  0  0  0  0
 19 21  1  0  0  0  0
 19 22  1  0  0  0  0
  1 23  1  0  0  0  0
 23 24  1  0  0  0  0
 23 25  1  0  0  0  0
 23 26  1  0  0  0  0
M  END
> <VConfSearch Rank>
728

> <Conf_Id>
45

> <Delta U+W>
0.471

> <U+W>
22.313

> <U>
71.138

> <W>
-48.825

> <W(PB)>
-51.169

> <W(SA)>
2.344

> <Valence>
2.016

> <Coulomb>
68.932

> <VdW>
0.190

> <VdW6>
-5.902

> <VdW12>
6.092

> <Bond>
0.149

> <Angle>
0.477

> <Pdih>
1.390

> <Idih>
0.000

> <Tether>
0.000

$$$$
VeraChem MOL file


 26 25  0  0  0  0  0  0  0  0999 V2000     
   19.7330   16.5586   23.7473 N   0  3  0  0  0  0  0  0  0  0  0  0
   18.9964   16.8700   23.0964 H   0  0  0  0  0  0  0  0  0  0  0  0
   19.4111   16.8423   24.6857 H   0  0  0  0  0  0  0  0  0  0  0  0
   21.0444   17.2443   23.4160 C   0  0  0  0  0  0  0  0  0  0  0  0
   21.3472   16.9273   22.4148 H   0  0  0  0  0  0  0  0  0  0  0  0
   21.7927   16.8869   24.1279 H   0  0  0  0  0  0  0  0  0  0  0  0
   20.9767   18.7830   23.4745 C   0  0  0  0  0  0  0  0  0  0  0  0
   20.6739   19.0906   24.4834 H   0  0  0  0  0  0  0  0  0  0  0  0
   21.9875   19.1810   23.3139 H   0  0  0  0  0  0  0  0  0  0  0  0
   20.0162   19.3772   22.4139 C   0  0  0  0  0  0  0  0  0  0  0  0
   18.9851   19.0584   22.6172 H   0  0  0  0  0  0  0  0  0  0  0  0
   20.2777   18.9691   21.4276 H   0  0  0  0  0  0  0  0  0  0  0  0
   20.0658   20.9229   22.3340 C   0  0  0  0  0  0  0  0  0  0  0  0
   21.0906   21.2477   22.1067 H   0  0  0  0  0  0  0  0  0  0  0  0
   19.4455   21.2480   21.4872 H   0  0  0  0  0  0  0  0  0  0  0  0
   19.5691   21.6253   23.6200 C   0  0  0  0  0  0  0  0  0  0  0  0
   20.2222   21.3739   24.4662 H   0  0  0  0  0  0  0  0  0  0  0  0
   18.5631   21.2641   23.8756 H   0  0  0  0  0  0  0  0  0  0  0  0
   19.5341   23.1596   23.4535 C   0  0  0  0  0  0  0  0  0  0  0  0
   20.5329   23.5548   23.2267 H   0  0  0  0  0  0  0  0  0  0  0  0
   19.1826   23.6417   24.3750 H   0  0  0  0  0  0  0  0  0  0  0  0
   18.8574   23.4539   22.6408 H   0  0  0  0  0  0  0  0  0  0  0  0
   19.9051   15.0477   23.6750 C   0  0  0  0  0  0  0  0  0  0  0  0
   20.6667   14.7383   24.3942 H   0  0  0  0  0  0  0  0  0  0  0  0
   18.9541   14.5669   23.9150 H   0  0  0  0  0  0  0  0  0  0  0  0
   20.2148   14.7695   22.6653 H   0  0  0  0  0  0  0  0  0  0  0  0
  1  2  1  0  0  0  0
  1  3  1  0  0  0  0
  1  4  1  0  0  0  0
  4  5  1  0  0  0  0
  4  6  1  0  0  0  0
  4  7  1  0  0  0  0
  7  8  1  0  0  0  0
  7  9  1  0  0  0  0
  7 10  1  0  0  0  0
 10 11  1  0  0  0  0
 10 12  1  0  0  0  0
 10 13  1  0  0  0  0
 13 14  1  0  0  0  0
 13 15  1  0  0  0  0
 13 16  1  0  0  0  0
 16 17  1  0  0  0  0
 16 18  1  0  0  0  0
 16 19  1  0  0  0  0
 19 20  1  0  0  0  0
 19 21  1  0  0  0  0
 19 22  1  0  0  0  0
  1 23  1  0  0  0  0
 23 24  1  0  0  0  0
 23 25  1  0  0  0  0
 23 26  1  0  0  0  0
M  END
> <VConfSearch Rank>
729

> <Conf_Id>
143

> <Delta U+W>
0.915

> <U+W>
22.757

> <U>
71.994

> <W>
-49.237

> <W(PB)>
-51.537

> <W(SA)>
2.300

> <Valence>
2.376

> <Coulomb>
69.315

> <VdW>
0.303

> <VdW6>
-6.508

> <VdW12>
6.810

> <Bond>
0.182

> <Angle>
0.660

> <Pdih>
1.534

> <Idih>
0.000

> <Tether>
0.000

$$$$
VeraChem MOL file


 26 25  0  0  0  0  0  0  0  0999 V2000     
   20.5622   20.7489   25.2179 N   0  3  0  0  0  0  0  0  0  0  0  0
   20.8773   21.2883   24.3977 H   0  0  0  0  0  0  0  0  0  0  0  0
   21.3869   20.2127   25.5295 H   0  0  0  0  0  0  0  0  0  0  0  0
   19.4442   19.8033   24.8226 C   0  0  0  0  0  0  0  0  0  0  0  0
   18.5944   20.4046   24.4898 H   0  0  0  0  0  0  0  0  0  0  0  0
   19.1444   19.2567   25.7203 H   0  0  0  0  0  0  0  0  0  0  0  0
   19.8323   18.7981   23.7201 C   0  0  0  0  0  0  0  0  0  0  0  0
   20.7049   18.2158   24.0443 H   0  0  0  0  0  0  0  0  0  0  0  0
   19.0013   18.0918   23.6039 H   0  0  0  0  0  0  0  0  0  0  0  0
   20.1203   19.4817   22.3611 C   0  0  0  0  0  0  0  0  0  0  0  0
   20.8788   20.2635   22.4978 H   0  0  0  0  0  0  0  0  0  0  0  0
   19.2131   19.9944   22.0124 H   0  0  0  0  0  0  0  0  0  0  0  0
   20.6239   18.5185   21.2548 C   0  0  0  0  0  0  0  0  0  0  0  0
   20.8328   19.1230   20.3612 H   0  0  0  0  0  0  0  0  0  0  0  0
   21.5885   18.0802   21.5459 H   0  0  0  0  0  0  0  0  0  0  0  0
   19.6251   17.4009   20.8573 C   0  0  0  0  0  0  0  0  0  0  0  0
   19.7146   17.2196   19.7770 H   0  0  0  0  0  0  0  0  0  0  0  0
   18.5913   17.7353   21.0218 H   0  0  0  0  0  0  0  0  0  0  0  0
   19.8802   16.0611   21.5870 C   0  0  0  0  0  0  0  0  0  0  0  0
   19.7873   16.1580   22.6742 H   0  0  0  0  0  0  0  0  0  0  0  0
   20.8863   15.6809   21.3672 H   0  0  0  0  0  0  0  0  0  0  0  0
   19.1591   15.3016   21.2584 H   0  0  0  0  0  0  0  0  0  0  0  0
   20.0846   21.6841   26.3200 C   0  0  0  0  0  0  0  0  0  0  0  0
   19.7866   21.0928   27.1886 H   0  0  0  0  0  0  0  0  0  0  0  0
   20.8982   22.3590   26.5948 H   0  0  0  0  0  0  0  0  0  0  0  0
   19.2325   22.2624   25.9561 H   0  0  0  0  0  0  0  0  0  0  0  0
  1  2  1  0  0  0  0
  1  3  1  0  0  0  0
  1  4  1  0  0  0  0
  4  5  1  0  0  0  0
  4  6  1  0  0  0  0
  4  7  1  0  0  0  0
  7  8  1  0  0  0  0
  7  9  1  0  0  0  0
  7 10  1  0  0  0  0
 10 11  1  0  0  0  0
 10 12  1  0  0  0  0
 10 13  1  0  0  0  0
 13 14  1  0  0  0  0
 13 15  1  0  0  0  0
 13 16  1  0  0  0  0
 16 17  1  0  0  0  0
 16 18  1  0  0  0  0
 16 19  1  0  0  0  0
 19 20  1  0  0  0  0
 19 21  1  0  0  0  0
 19 22  1  0  0  0  0
  1 23  1  0  0  0  0
 23 24  1  0  0  0  0
 23 25  1  0  0  0  0
 23 26  1  0  0  0  0
M  END
> <VConfSearch Rank>
730

> <Conf_Id>
76

> <Delta U+W>
3.468

> <U+W>
25.310

> <U>
74.594

> <W>
-49.283

> <W(PB)>
-51.537

> <W(SA)>
2.253

> <Valence>
4.886

> <Coulomb>
69.332

> <VdW>
0.376

> <VdW6>
-7.329

> <VdW12>
7.705

> <Bond>
0.232

> <Angle>
1.251

> <Pdih>
3.403

> <Idih>
0.000

> <Tether>
0.000

$$$$
VeraChem MOL file


 26 25  0  0  0  0  0  0  0  0999 V2000     
   19.2226   16.5282   23.9949 N   0  3  0  0  0  0  0  0  0  0  0  0
   19.2821   16.3504   22.9802 H   0  0  0  0  0  0  0  0  0  0  0  0
   18.2232   16.7006   24.1855 H   0  0  0  0  0  0  0  0  0  0  0  0
   20.0429   17.7488   24.3614 C   0  0  0  0  0  0  0  0  0  0  0  0
   21.0899   17.5283   24.1383 H   0  0  0  0  0  0  0  0  0  0  0  0
   19.9462   17.9066   25.4385 H   0  0  0  0  0  0  0  0  0  0  0  0
   19.6105   19.0212   23.6106 C   0  0  0  0  0  0  0  0  0  0  0  0
   19.6861   18.8458   22.5316 H   0  0  0  0  0  0  0  0  0  0  0  0
   18.5536   19.2274   23.8255 H   0  0  0  0  0  0  0  0  0  0  0  0
   20.4696   20.2396   24.0266 C   0  0  0  0  0  0  0  0  0  0  0  0
   21.5365   20.0269   23.8722 H   0  0  0  0  0  0  0  0  0  0  0  0
   20.3444   20.3917   25.1078 H   0  0  0  0  0  0  0  0  0  0  0  0
   20.0772   21.5517   23.2979 C   0  0  0  0  0  0  0  0  0  0  0  0
   19.0073   21.5446   23.0481 H   0  0  0  0  0  0  0  0  0  0  0  0
   20.2106   22.3859   24.0006 H   0  0  0  0  0  0  0  0  0  0  0  0
   20.9174   21.8691   22.0343 C   0  0  0  0  0  0  0  0  0  0  0  0
   21.9749   21.9786   22.3127 H   0  0  0  0  0  0  0  0  0  0  0  0
   20.6036   22.8476   21.6445 H   0  0  0  0  0  0  0  0  0  0  0  0
   20.7910   20.8233   20.9048 C   0  0  0  0  0  0  0  0  0  0  0  0
   19.7394   20.6411   20.6487 H   0  0  0  0  0  0  0  0  0  0  0  0
   21.2528   19.8703   21.1904 H   0  0  0  0  0  0  0  0  0  0  0  0
   21.3010   21.1747   19.9985 H   0  0  0  0  0  0  0  0  0  0  0  0
   19.7146   15.3192   24.7784 C   0  0  0  0  0  0  0  0  0  0  0  0
   20.7637   15.1365   24.5357 H   0  0  0  0  0  0  0  0  0  0  0  0
   19.6112   15.5177   25.8475 H   0  0  0  0  0  0  0  0  0  0  0  0
   19.1157   14.4475   24.5055 H   0  0  0  0  0  0  0  0  0  0  0  0
  1  2  1  0  0  0  0
  1  3  1  0  0  0  0
  1  4  1  0  0  0  0
  4  5  1  0  0  0  0
  4  6  1  0  0  0  0
  4  7  1  0  0  0  0
  7  8  1  0  0  0  0
  7  9  1  0  0  0  0
  7 10  1  0  0  0  0
 10 11  1  0  0  0  0
 10 12  1  0  0  0  0
 10 13  1  0  0  0  0
 13 14  1  0  0  0  0
 13 15  1  0  0  0  0
 13 16  1  0  0  0  0
 16 17  1  0  0  0  0
 16 18  1  0  0  0  0
 16 19  1  0  0  0  0
 19 20  1  0  0  0  0
 19 21  1  0  0  0  0
 19 22  1  0  0  0  0
  1 23  1  0  0  0  0
 23 24  1  0  0  0  0
 23 25  1  0  0  0  0
 23 26  1  0  0  0  0
M  END
> <VConfSearch Rank>
731

> <Conf_Id>
123

> <Delta U+W>
3.101

> <U+W>
24.943

> <U>
74.070

> <W>
-49.127

> <W(PB)>
-51.421

> <W(SA)>
2.295

> <Valence>
4.690

> <Coulomb>
69.115

> <VdW>
0.266

> <VdW6>
-6.809

> <VdW12>
7.075

> <Bond>
0.212

> <Angle>
1.133

> <Pdih>
3.345

> <Idih>
0.000

> <Tether>
0.000

$$$$
VeraChem MOL file


 26 25  0  0  0  0  0  0  0  0999 V2000     
   20.9079   19.5034   25.7932 N   0  3  0  0  0  0  0  0  0  0  0  0
   20.0363   19.7559   26.2842 H   0  0  0  0  0  0  0  0  0  0  0  0
   21.2000   20.3560   25.2923 H   0  0  0  0  0  0  0  0  0  0  0  0
   20.6445   18.3834   24.8052 C   0  0  0  0  0  0  0  0  0  0  0  0
   20.3399   17.5039   25.3781 H   0  0  0  0  0  0  0  0  0  0  0  0
   21.5851   18.1518   24.2992 H   0  0  0  0  0  0  0  0  0  0  0  0
   19.5608   18.7120   23.7595 C   0  0  0  0  0  0  0  0  0  0  0  0
   19.3689   17.8083   23.1702 H   0  0  0  0  0  0  0  0  0  0  0  0
   18.6195   18.9497   24.2724 H   0  0  0  0  0  0  0  0  0  0  0  0
   19.9646   19.8841   22.8288 C   0  0  0  0  0  0  0  0  0  0  0  0
   20.9526   19.6976   22.3854 H   0  0  0  0  0  0  0  0  0  0  0  0
   20.0703   20.7926   23.4366 H   0  0  0  0  0  0  0  0  0  0  0  0
   18.9264   20.1686   21.7119 C   0  0  0  0  0  0  0  0  0  0  0  0
   17.9176   19.8928   22.0490 H   0  0  0  0  0  0  0  0  0  0  0  0
   18.8944   21.2539   21.5425 H   0  0  0  0  0  0  0  0  0  0  0  0
   19.2369   19.4943   20.3509 C   0  0  0  0  0  0  0  0  0  0  0  0
   20.2031   19.8563   19.9725 H   0  0  0  0  0  0  0  0  0  0  0  0
   18.4834   19.8205   19.6204 H   0  0  0  0  0  0  0  0  0  0  0  0
   19.2495   17.9504   20.3927 C   0  0  0  0  0  0  0  0  0  0  0  0
   18.3182   17.5577   20.8210 H   0  0  0  0  0  0  0  0  0  0  0  0
   20.0933   17.5741   20.9840 H   0  0  0  0  0  0  0  0  0  0  0  0
   19.3515   17.5404   19.3796 H   0  0  0  0  0  0  0  0  0  0  0  0
   21.9779   19.0761   26.7882 C   0  0  0  0  0  0  0  0  0  0  0  0
   22.8987   18.8450   26.2481 H   0  0  0  0  0  0  0  0  0  0  0  0
   22.1580   19.8911   27.4927 H   0  0  0  0  0  0  0  0  0  0  0  0
   21.6334   18.1913   27.3279 H   0  0  0  0  0  0  0  0  0  0  0  0
  1  2  1  0  0  0  0
  1  3  1  0  0  0  0
  1  4  1  0  0  0  0
  4  5  1  0  0  0  0
  4  6  1  0  0  0  0
  4  7  1  0  0  0  0
  7  8  1  0  0  0  0
  7  9  1  0  0  0  0
  7 10  1  0  0  0  0
 10 11  1  0  0  0  0
 10 12  1  0  0  0  0
 10 13  1  0  0  0  0
 13 14  1  0  0  0  0
 13 15  1  0  0  0  0
 13 16  1  0  0  0  0
 16 17  1  0  0  0  0
 16 18  1  0  0  0  0
 16 19  1  0  0  0  0
 19 20  1  0  0  0  0
 19 21  1  0  0  0  0
 19 22  1  0  0  0  0
  1 23  1  0  0  0  0
 23 24  1  0  0  0  0
 23 25  1  0  0  0  0
 23 26  1  0  0  0  0
M  END
> <VConfSearch Rank>
732

> <Conf_Id>
111

> <Delta U+W>
3.383

> <U+W>
25.225

> <U>
74.516

> <W>
-49.292

> <W(PB)>
-51.558

> <W(SA)>
2.266

> <Valence>
4.842

> <Coulomb>
69.333

> <VdW>
0.342

> <VdW6>
-7.369

> <VdW12>
7.711

> <Bond>
0.232

> <Angle>
1.153

> <Pdih>
3.457

> <Idih>
0.000

> <Tether>
0.000

$$$$
VeraChem MOL file


 26 25  0  0  0  0  0  0  0  0999 V2000     
   19.8817   19.5227   25.6371 N   0  3  0  0  0  0  0  0  0  0  0  0
   20.6955   19.2102   26.1890 H   0  0  0  0  0  0  0  0  0  0  0  0
   19.5179   18.6754   25.1757 H   0  0  0  0  0  0  0  0  0  0  0  0
   20.3161   20.5338   24.5943 C   0  0  0  0  0  0  0  0  0  0  0  0
   20.7043   21.4083   25.1226 H   0  0  0  0  0  0  0  0  0  0  0  0
   19.4300   20.8423   24.0346 H   0  0  0  0  0  0  0  0  0  0  0  0
   21.3906   20.0050   23.6215 C   0  0  0  0  0  0  0  0  0  0  0  0
   21.6750   20.8156   22.9375 H   0  0  0  0  0  0  0  0  0  0  0  0
   22.2959   19.7537   24.1898 H   0  0  0  0  0  0  0  0  0  0  0  0
   20.9469   18.7716   22.7945 C   0  0  0  0  0  0  0  0  0  0  0  0
   20.7432   17.9253   23.4639 H   0  0  0  0  0  0  0  0  0  0  0  0
   21.7910   18.4646   22.1634 H   0  0  0  0  0  0  0  0  0  0  0  0
   19.7078   19.0465   21.9047 C   0  0  0  0  0  0  0  0  0  0  0  0
   18.8694   19.3765   22.5322 H   0  0  0  0  0  0  0  0  0  0  0  0
   19.9229   19.8753   21.2162 H   0  0  0  0  0  0  0  0  0  0  0  0
   19.2438   17.8109   21.0955 C   0  0  0  0  0  0  0  0  0  0  0  0
   18.3009   18.0573   20.5873 H   0  0  0  0  0  0  0  0  0  0  0  0
   19.0155   16.9819   21.7799 H   0  0  0  0  0  0  0  0  0  0  0  0
   20.2701   17.3447   20.0378 C   0  0  0  0  0  0  0  0  0  0  0  0
   21.1882   16.9667   20.5042 H   0  0  0  0  0  0  0  0  0  0  0  0
   20.5403   18.1654   19.3606 H   0  0  0  0  0  0  0  0  0  0  0  0
   19.8521   16.5323   19.4294 H   0  0  0  0  0  0  0  0  0  0  0  0
   18.8226   20.1344   26.5434 C   0  0  0  0  0  0  0  0  0  0  0  0
   18.5183   19.3957   27.2882 H   0  0  0  0  0  0  0  0  0  0  0  0
   19.2405   21.0112   27.0429 H   0  0  0  0  0  0  0  0  0  0  0  0
   17.9601   20.4277   25.9408 H   0  0  0  0  0  0  0  0  0  0  0  0
  1  2  1  0  0  0  0
  1  3  1  0  0  0  0
  1  4  1  0  0  0  0
  4  5  1  0  0  0  0
  4  6  1  0  0  0  0
  4  7  1  0  0  0  0
  7  8  1  0  0  0  0
  7  9  1  0  0  0  0
  7 10  1  0  0  0  0
 10 11  1  0  0  0  0
 10 12  1  0  0  0  0
 10 13  1  0  0  0  0
 13 14  1  0  0  0  0
 13 15  1  0  0  0  0
 13 16  1  0  0  0  0
 16 17  1  0  0  0  0
 16 18  1  0  0  0  0
 16 19  1  0  0  0  0
 19 20  1  0  0  0  0
 19 21  1  0  0  0  0
 19 22  1  0  0  0  0
  1 23  1  0  0  0  0
 23 24  1  0  0  0  0
 23 25  1  0  0  0  0
 23 26  1  0  0  0  0
M  END
> <VConfSearch Rank>
733

> <Conf_Id>
126

> <Delta U+W>
1.519

> <U+W>
23.361

> <U>
72.579

> <W>
-49.218

> <W(PB)>
-51.496

> <W(SA)>
2.279

> <Valence>
2.678

> <Coulomb>
69.622

> <VdW>
0.279

> <VdW6>
-7.328

> <VdW12>
7.608

> <Bond>
0.212

> <Angle>
0.911

> <Pdih>
1.555

> <Idih>
0.000

> <Tether>
0.000

$$$$
VeraChem MOL file


 26 25  0  0  0  0  0  0  0  0999 V2000     
   21.0964   20.5763   21.6748 N   0  3  0  0  0  0  0  0  0  0  0  0
   20.6283   20.9065   22.5322 H   0  0  0  0  0  0  0  0  0  0  0  0
   20.4892   20.8736   20.8954 H   0  0  0  0  0  0  0  0  0  0  0  0
   21.2126   19.0649   21.6980 C   0  0  0  0  0  0  0  0  0  0  0  0
   21.8633   18.7899   22.5314 H   0  0  0  0  0  0  0  0  0  0  0  0
   21.7016   18.7562   20.7705 H   0  0  0  0  0  0  0  0  0  0  0  0
   19.8589   18.3365   21.8297 C   0  0  0  0  0  0  0  0  0  0  0  0
   19.2372   18.5753   20.9566 H   0  0  0  0  0  0  0  0  0  0  0  0
   20.0370   17.2536   21.7903 H   0  0  0  0  0  0  0  0  0  0  0  0
   19.0769   18.6783   23.1234 C   0  0  0  0  0  0  0  0  0  0  0  0
   18.1250   18.1322   23.0989 H   0  0  0  0  0  0  0  0  0  0  0  0
   18.8162   19.7449   23.1328 H   0  0  0  0  0  0  0  0  0  0  0  0
   19.8492   18.3158   24.4176 C   0  0  0  0  0  0  0  0  0  0  0  0
   20.0846   17.2426   24.4198 H   0  0  0  0  0  0  0  0  0  0  0  0
   20.8122   18.8430   24.4320 H   0  0  0  0  0  0  0  0  0  0  0  0
   19.0843   18.6788   25.7137 C   0  0  0  0  0  0  0  0  0  0  0  0
   18.8565   19.7539   25.7229 H   0  0  0  0  0  0  0  0  0  0  0  0
   19.7443   18.4980   26.5737 H   0  0  0  0  0  0  0  0  0  0  0  0
   17.7819   17.8693   25.9093 C   0  0  0  0  0  0  0  0  0  0  0  0
   17.9780   16.7899   25.8709 H   0  0  0  0  0  0  0  0  0  0  0  0
   17.0363   18.1114   25.1421 H   0  0  0  0  0  0  0  0  0  0  0  0
   17.3336   18.0938   26.8858 H   0  0  0  0  0  0  0  0  0  0  0  0
   22.4785   21.2012   21.5459 C   0  0  0  0  0  0  0  0  0  0  0  0
   23.0909   20.8973   22.3977 H   0  0  0  0  0  0  0  0  0  0  0  0
   22.9411   20.8605   20.6170 H   0  0  0  0  0  0  0  0  0  0  0  0
   22.3800   22.2889   21.5315 H   0  0  0  0  0  0  0  0  0  0  0  0
  1  2  1  0  0  0  0
  1  3  1  0  0  0  0
  1  4  1  0  0  0  0
  4  5  1  0  0  0  0
  4  6  1  0  0  0  0
  4  7  1  0  0  0  0
  7  8  1  0  0  0  0
  7  9  1  0  0  0  0
  7 10  1  0  0  0  0
 10 11  1  0  0  0  0
 10 12  1  0  0  0  0
 10 13  1  0  0  0  0
 13 14  1  0  0  0  0
 13 15  1  0  0  0  0
 13 16  1  0  0  0  0
 16 17  1  0  0  0  0
 16 18  1  0  0  0  0
 16 19  1  0  0  0  0
 19 20  1  0  0  0  0
 19 21  1  0  0  0  0
 19 22  1  0  0  0  0
  1 23  1  0  0  0  0
 23 24  1  0  0  0  0
 23 25  1  0  0  0  0
 23 26  1  0  0  0  0
M  END
> <VConfSearch Rank>
734

> <Conf_Id>
134

> <Delta U+W>
1.464

> <U+W>
23.306

> <U>
72.579

> <W>
-49.273

> <W(PB)>
-51.540

> <W(SA)>
2.267

> <Valence>
2.677

> <Coulomb>
69.622

> <VdW>
0.280

> <VdW6>
-7.328

> <VdW12>
7.608

> <Bond>
0.212

> <Angle>
0.911

> <Pdih>
1.555

> <Idih>
0.000

> <Tether>
0.000

$$$$
VeraChem MOL file


 26 25  0  0  0  0  0  0  0  0999 V2000     
   20.3599   17.3348   21.1543 N   0  3  0  0  0  0  0  0  0  0  0  0
   21.2056   17.8765   20.9174 H   0  0  0  0  0  0  0  0  0  0  0  0
   19.6208   17.6922   20.5292 H   0  0  0  0  0  0  0  0  0  0  0  0
   19.9779   17.5678   22.6023 C   0  0  0  0  0  0  0  0  0  0  0  0
   20.7872   17.1841   23.2285 H   0  0  0  0  0  0  0  0  0  0  0  0
   19.0766   16.9853   22.8090 H   0  0  0  0  0  0  0  0  0  0  0  0
   19.7245   19.0495   22.9343 C   0  0  0  0  0  0  0  0  0  0  0  0
   20.6293   19.6268   22.7056 H   0  0  0  0  0  0  0  0  0  0  0  0
   18.9217   19.4356   22.2922 H   0  0  0  0  0  0  0  0  0  0  0  0
   19.3376   19.2354   24.4203 C   0  0  0  0  0  0  0  0  0  0  0  0
   20.1559   18.8856   25.0638 H   0  0  0  0  0  0  0  0  0  0  0  0
   18.4782   18.5896   24.6484 H   0  0  0  0  0  0  0  0  0  0  0  0
   18.9623   20.6948   24.7865 C   0  0  0  0  0  0  0  0  0  0  0  0
   18.0715   20.9890   24.2144 H   0  0  0  0  0  0  0  0  0  0  0  0
   18.6637   20.7270   25.8435 H   0  0  0  0  0  0  0  0  0  0  0  0
   20.0773   21.7454   24.5493 C   0  0  0  0  0  0  0  0  0  0  0  0
   19.6948   22.7330   24.8429 H   0  0  0  0  0  0  0  0  0  0  0  0
   20.3074   21.8202   23.4780 H   0  0  0  0  0  0  0  0  0  0  0  0
   21.3724   21.4580   25.3425 C   0  0  0  0  0  0  0  0  0  0  0  0
   21.1643   21.3602   26.4158 H   0  0  0  0  0  0  0  0  0  0  0  0
   22.0921   22.2767   25.2133 H   0  0  0  0  0  0  0  0  0  0  0  0
   21.8574   20.5354   25.0004 H   0  0  0  0  0  0  0  0  0  0  0  0
   20.5919   15.8497   20.9123 C   0  0  0  0  0  0  0  0  0  0  0  0
   19.6745   15.3015   21.1377 H   0  0  0  0  0  0  0  0  0  0  0  0
   20.8661   15.6957   19.8663 H   0  0  0  0  0  0  0  0  0  0  0  0
   21.3995   15.5021   21.5603 H   0  0  0  0  0  0  0  0  0  0  0  0
  1  2  1  0  0  0  0
  1  3  1  0  0  0  0
  1  4  1  0  0  0  0
  4  5  1  0  0  0  0
  4  6  1  0  0  0  0
  4  7  1  0  0  0  0
  7  8  1  0  0  0  0
  7  9  1  0  0  0  0
  7 10  1  0  0  0  0
 10 11  1  0  0  0  0
 10 12  1  0  0  0  0
 10 13  1  0  0  0  0
 13 14  1  0  0  0  0
 13 15  1  0  0  0  0
 13 16  1  0  0  0  0
 16 17  1  0  0  0  0
 16 18  1  0  0  0  0
 16 19  1  0  0  0  0
 19 20  1  0  0  0  0
 19 21  1  0  0  0  0
 19 22  1  0  0  0  0
  1 23  1  0  0  0  0
 23 24  1  0  0  0  0
 23 25  1  0  0  0  0
 23 26  1  0  0  0  0
M  END
> <VConfSearch Rank>
735

> <Conf_Id>
30

> <Delta U+W>
0.910

> <U+W>
22.752

> <U>
71.870

> <W>
-49.118

> <W(PB)>
-51.409

> <W(SA)>
2.290

> <Valence>
2.682

> <Coulomb>
68.933

> <VdW>
0.255

> <VdW6>
-6.833

> <VdW12>
7.088

> <Bond>
0.205

> <Angle>
1.003

> <Pdih>
1.473

> <Idih>
0.000

> <Tether>
0.000

$$$$
VeraChem MOL file


 26 25  0  0  0  0  0  0  0  0999 V2000     
   17.5229   18.3812   22.1749 N   0  3  0  0  0  0  0  0  0  0  0  0
   16.9522   19.2049   22.4214 H   0  0  0  0  0  0  0  0  0  0  0  0
   17.4261   17.7318   22.9709 H   0  0  0  0  0  0  0  0  0  0  0  0
   18.9737   18.7835   22.0011 C   0  0  0  0  0  0  0  0  0  0  0  0
   19.0309   19.4750   21.1568 H   0  0  0  0  0  0  0  0  0  0  0  0
   19.5429   17.8850   21.7496 H   0  0  0  0  0  0  0  0  0  0  0  0
   19.5765   19.4445   23.2539 C   0  0  0  0  0  0  0  0  0  0  0  0
   18.9925   20.3376   23.5126 H   0  0  0  0  0  0  0  0  0  0  0  0
   19.4970   18.7485   24.0985 H   0  0  0  0  0  0  0  0  0  0  0  0
   21.0553   19.8371   23.0270 C   0  0  0  0  0  0  0  0  0  0  0  0
   21.1228   20.4700   22.1312 H   0  0  0  0  0  0  0  0  0  0  0  0
   21.6484   18.9395   22.8066 H   0  0  0  0  0  0  0  0  0  0  0  0
   21.6831   20.6077   24.2175 C   0  0  0  0  0  0  0  0  0  0  0  0
   22.7147   20.8806   23.9556 H   0  0  0  0  0  0  0  0  0  0  0  0
   21.1466   21.5572   24.3511 H   0  0  0  0  0  0  0  0  0  0  0  0
   21.6942   19.8464   25.5679 C   0  0  0  0  0  0  0  0  0  0  0  0
   20.6668   19.6701   25.9134 H   0  0  0  0  0  0  0  0  0  0  0  0
   22.1592   20.4899   26.3278 H   0  0  0  0  0  0  0  0  0  0  0  0
   22.4634   18.5069   25.5127 C   0  0  0  0  0  0  0  0  0  0  0  0
   21.9672   17.7847   24.8525 H   0  0  0  0  0  0  0  0  0  0  0  0
   22.5213   18.0553   26.5115 H   0  0  0  0  0  0  0  0  0  0  0  0
   23.4893   18.6554   25.1515 H   0  0  0  0  0  0  0  0  0  0  0  0
   17.0069   17.7378   20.8952 C   0  0  0  0  0  0  0  0  0  0  0  0
   15.9615   17.4531   21.0337 H   0  0  0  0  0  0  0  0  0  0  0  0
   17.0885   18.4543   20.0748 H   0  0  0  0  0  0  0  0  0  0  0  0
   17.6044   16.8509   20.6729 H   0  0  0  0  0  0  0  0  0  0  0  0
  1  2  1  0  0  0  0
  1  3  1  0  0  0  0
  1  4  1  0  0  0  0
  4  5  1  0  0  0  0
  4  6  1  0  0  0  0
  4  7  1  0  0  0  0
  7  8  1  0  0  0  0
  7  9  1  0  0  0  0
  7 10  1  0  0  0  0
 10 11  1  0  0  0  0
 10 12  1  0  0  0  0
 10 13  1  0  0  0  0
 13 14  1  0  0  0  0
 13 15  1  0  0  0  0
 13 16  1  0  0  0  0
 16 17  1  0  0  0  0
 16 18  1  0  0  0  0
 16 19  1  0  0  0  0
 19 20  1  0  0  0  0
 19 21  1  0  0  0  0
 19 22  1  0  0  0  0
  1 23  1  0  0  0  0
 23 24  1  0  0  0  0
 23 25  1  0  0  0  0
 23 26  1  0  0  0  0
M  END
> <VConfSearch Rank>
736

> <Conf_Id>
29

> <Delta U+W>
0.886

> <U+W>
22.729

> <U>
71.870

> <W>
-49.141

> <W(PB)>
-51.404

> <W(SA)>
2.262

> <Valence>
2.682

> <Coulomb>
68.933

> <VdW>
0.255

> <VdW6>
-6.833

> <VdW12>
7.088

> <Bond>
0.205

> <Angle>
1.003

> <Pdih>
1.473

> <Idih>
0.000

> <Tether>
0.000

$$$$
VeraChem MOL file


 26 25  0  0  0  0  0  0  0  0999 V2000     
   19.6416   19.1812   25.9098 N   0  3  0  0  0  0  0  0  0  0  0  0
   19.1740   18.3666   26.3371 H   0  0  0  0  0  0  0  0  0  0  0  0
   18.8868   19.8529   25.7010 H   0  0  0  0  0  0  0  0  0  0  0  0
   20.3442   18.7695   24.6318 C   0  0  0  0  0  0  0  0  0  0  0  0
   21.1247   18.0509   24.8940 H   0  0  0  0  0  0  0  0  0  0  0  0
   20.8209   19.6587   24.2123 H   0  0  0  0  0  0  0  0  0  0  0  0
   19.3965   18.1476   23.5886 C   0  0  0  0  0  0  0  0  0  0  0  0
   18.8960   17.2764   24.0316 H   0  0  0  0  0  0  0  0  0  0  0  0
   18.6035   18.8630   23.3358 H   0  0  0  0  0  0  0  0  0  0  0  0
   20.1351   17.6997   22.3029 C   0  0  0  0  0  0  0  0  0  0  0  0
   19.4107   17.2500   21.6108 H   0  0  0  0  0  0  0  0  0  0  0  0
   20.8377   16.8948   22.5595 H   0  0  0  0  0  0  0  0  0  0  0  0
   20.9179   18.8262   21.5753 C   0  0  0  0  0  0  0  0  0  0  0  0
   21.7511   19.1594   22.2086 H   0  0  0  0  0  0  0  0  0  0  0  0
   21.3837   18.4037   20.6744 H   0  0  0  0  0  0  0  0  0  0  0  0
   20.0725   20.0602   21.1688 C   0  0  0  0  0  0  0  0  0  0  0  0
   20.7315   20.7893   20.6769 H   0  0  0  0  0  0  0  0  0  0  0  0
   19.6817   20.5644   22.0628 H   0  0  0  0  0  0  0  0  0  0  0  0
   18.9082   19.7175   20.2118 C   0  0  0  0  0  0  0  0  0  0  0  0
   18.3951   20.6320   19.8873 H   0  0  0  0  0  0  0  0  0  0  0  0
   18.1632   19.0754   20.6978 H   0  0  0  0  0  0  0  0  0  0  0  0
   19.2739   19.2015   19.3146 H   0  0  0  0  0  0  0  0  0  0  0  0
   20.6453   19.7899   26.8791 C   0  0  0  0  0  0  0  0  0  0  0  0
   20.1269   20.0817   27.7952 H   0  0  0  0  0  0  0  0  0  0  0  0
   21.4151   19.0504   27.1105 H   0  0  0  0  0  0  0  0  0  0  0  0
   21.1025   20.6683   26.4182 H   0  0  0  0  0  0  0  0  0  0  0  0
  1  2  1  0  0  0  0
  1  3  1  0  0  0  0
  1  4  1  0  0  0  0
  4  5  1  0  0  0  0
  4  6  1  0  0  0  0
  4  7  1  0  0  0  0
  7  8  1  0  0  0  0
  7  9  1  0  0  0  0
  7 10  1  0  0  0  0
 10 11  1  0  0  0  0
 10 12  1  0  0  0  0
 10 13  1  0  0  0  0
 13 14  1  0  0  0  0
 13 15  1  0  0  0  0
 13 16  1  0  0  0  0
 16 17  1  0  0  0  0
 16 18  1  0  0  0  0
 16 19  1  0  0  0  0
 19 20  1  0  0  0  0
 19 21  1  0  0  0  0
 19 22  1  0  0  0  0
  1 23  1  0  0  0  0
 23 24  1  0  0  0  0
 23 25  1  0  0  0  0
 23 26  1  0  0  0  0
M  END
> <VConfSearch Rank>
737

> <Conf_Id>
82

> <Delta U+W>
1.026

> <U+W>
22.868

> <U>
72.455

> <W>
-49.586

> <W(PB)>
-51.821

> <W(SA)>
2.234

> <Valence>
2.908

> <Coulomb>
69.435

> <VdW>
0.112

> <VdW6>
-7.765

> <VdW12>
7.877

> <Bond>
0.233

> <Angle>
1.170

> <Pdih>
1.506

> <Idih>
0.000

> <Tether>
0.000

$$$$
VeraChem MOL file


 26 25  0  0  0  0  0  0  0  0999 V2000     
   19.1677   17.0735   21.8887 N   0  3  0  0  0  0  0  0  0  0  0  0
   20.0620   17.1212   21.3765 H   0  0  0  0  0  0  0  0  0  0  0  0
   18.4406   17.3058   21.1943 H   0  0  0  0  0  0  0  0  0  0  0  0
   19.1557   18.0857   23.0163 C   0  0  0  0  0  0  0  0  0  0  0  0
   19.9395   17.8054   23.7241 H   0  0  0  0  0  0  0  0  0  0  0  0
   18.1905   18.0123   23.5235 H   0  0  0  0  0  0  0  0  0  0  0  0
   19.3812   19.5329   22.5386 C   0  0  0  0  0  0  0  0  0  0  0  0
   20.3435   19.6044   22.0158 H   0  0  0  0  0  0  0  0  0  0  0  0
   18.6098   19.7925   21.8015 H   0  0  0  0  0  0  0  0  0  0  0  0
   19.3308   20.5590   23.6978 C   0  0  0  0  0  0  0  0  0  0  0  0
   18.3195   20.5594   24.1275 H   0  0  0  0  0  0  0  0  0  0  0  0
   19.4791   21.5681   23.2907 H   0  0  0  0  0  0  0  0  0  0  0  0
   20.3529   20.3040   24.8385 C   0  0  0  0  0  0  0  0  0  0  0  0
   20.2421   21.0961   25.5919 H   0  0  0  0  0  0  0  0  0  0  0  0
   20.0976   19.3690   25.3551 H   0  0  0  0  0  0  0  0  0  0  0  0
   21.8363   20.2419   24.3933 C   0  0  0  0  0  0  0  0  0  0  0  0
   21.9955   19.3894   23.7195 H   0  0  0  0  0  0  0  0  0  0  0  0
   22.4592   20.0463   25.2773 H   0  0  0  0  0  0  0  0  0  0  0  0
   22.3281   21.5413   23.7162 C   0  0  0  0  0  0  0  0  0  0  0  0
   21.8081   21.7227   22.7674 H   0  0  0  0  0  0  0  0  0  0  0  0
   23.4020   21.4786   23.4977 H   0  0  0  0  0  0  0  0  0  0  0  0
   22.1683   22.4103   24.3674 H   0  0  0  0  0  0  0  0  0  0  0  0
   18.9458   15.6745   22.4466 C   0  0  0  0  0  0  0  0  0  0  0  0
   17.9797   15.6397   22.9550 H   0  0  0  0  0  0  0  0  0  0  0  0
   18.9562   14.9553   21.6246 H   0  0  0  0  0  0  0  0  0  0  0  0
   19.7446   15.4387   23.1532 H   0  0  0  0  0  0  0  0  0  0  0  0
  1  2  1  0  0  0  0
  1  3  1  0  0  0  0
  1  4  1  0  0  0  0
  4  5  1  0  0  0  0
  4  6  1  0  0  0  0
  4  7  1  0  0  0  0
  7  8  1  0  0  0  0
  7  9  1  0  0  0  0
  7 10  1  0  0  0  0
 10 11  1  0  0  0  0
 10 12  1  0  0  0  0
 10 13  1  0  0  0  0
 13 14  1  0  0  0  0
 13 15  1  0  0  0  0
 13 16  1  0  0  0  0
 16 17  1  0  0  0  0
 16 18  1  0  0  0  0
 16 19  1  0  0  0  0
 19 20  1  0  0  0  0
 19 21  1  0  0  0  0
 19 22  1  0  0  0  0
  1 23  1  0  0  0  0
 23 24  1  0  0  0  0
 23 25  1  0  0  0  0
 23 26  1  0  0  0  0
M  END
> <VConfSearch Rank>
738

> <Conf_Id>
71

> <Delta U+W>
1.096

> <U+W>
22.938

> <U>
72.455

> <W>
-49.517

> <W(PB)>
-51.795

> <W(SA)>
2.278

> <Valence>
2.908

> <Coulomb>
69.435

> <VdW>
0.112

> <VdW6>
-7.766

> <VdW12>
7.877

> <Bond>
0.233

> <Angle>
1.170

> <Pdih>
1.506

> <Idih>
0.000

> <Tether>
0.000

$$$$
VeraChem MOL file


 26 25  0  0  0  0  0  0  0  0999 V2000     
   22.0019   17.8267   22.6329 N   0  3  0  0  0  0  0  0  0  0  0  0
   21.7265   18.7113   22.1807 H   0  0  0  0  0  0  0  0  0  0  0  0
   22.2717   17.1997   21.8585 H   0  0  0  0  0  0  0  0  0  0  0  0
   20.8173   17.2347   23.3799 C   0  0  0  0  0  0  0  0  0  0  0  0
   21.1545   16.3120   23.8587 H   0  0  0  0  0  0  0  0  0  0  0  0
   20.0625   16.9682   22.6362 H   0  0  0  0  0  0  0  0  0  0  0  0
   20.1785   18.1626   24.4383 C   0  0  0  0  0  0  0  0  0  0  0  0
   19.3350   17.6352   24.9031 H   0  0  0  0  0  0  0  0  0  0  0  0
   20.9006   18.3452   25.2445 H   0  0  0  0  0  0  0  0  0  0  0  0
   19.6849   19.5203   23.8775 C   0  0  0  0  0  0  0  0  0  0  0  0
   20.5351   20.0910   23.4809 H   0  0  0  0  0  0  0  0  0  0  0  0
   19.2861   20.1087   24.7139 H   0  0  0  0  0  0  0  0  0  0  0  0
   18.5963   19.3698   22.7843 C   0  0  0  0  0  0  0  0  0  0  0  0
   18.9833   18.7562   21.9603 H   0  0  0  0  0  0  0  0  0  0  0  0
   17.7332   18.8271   23.1940 H   0  0  0  0  0  0  0  0  0  0  0  0
   18.1236   20.7214   22.1956 C   0  0  0  0  0  0  0  0  0  0  0  0
   17.4432   20.5206   21.3561 H   0  0  0  0  0  0  0  0  0  0  0  0
   18.9809   21.2633   21.7724 H   0  0  0  0  0  0  0  0  0  0  0  0
   17.3948   21.6201   23.2207 C   0  0  0  0  0  0  0  0  0  0  0  0
   18.0704   21.9541   24.0177 H   0  0  0  0  0  0  0  0  0  0  0  0
   16.5524   21.0894   23.6830 H   0  0  0  0  0  0  0  0  0  0  0  0
   16.9966   22.5174   22.7297 H   0  0  0  0  0  0  0  0  0  0  0  0
   23.1890   18.0422   23.5644 C   0  0  0  0  0  0  0  0  0  0  0  0
   24.0280   18.4387   22.9884 H   0  0  0  0  0  0  0  0  0  0  0  0
   22.9107   18.7531   24.3451 H   0  0  0  0  0  0  0  0  0  0  0  0
   23.4692   17.0875   24.0148 H   0  0  0  0  0  0  0  0  0  0  0  0
  1  2  1  0  0  0  0
  1  3  1  0  0  0  0
  1  4  1  0  0  0  0
  4  5  1  0  0  0  0
  4  6  1  0  0  0  0
  4  7  1  0  0  0  0
  7  8  1  0  0  0  0
  7  9  1  0  0  0  0
  7 10  1  0  0  0  0
 10 11  1  0  0  0  0
 10 12  1  0  0  0  0
 10 13  1  0  0  0  0
 13 14  1  0  0  0  0
 13 15  1  0  0  0  0
 13 16  1  0  0  0  0
 16 17  1  0  0  0  0
 16 18  1  0  0  0  0
 16 19  1  0  0  0  0
 19 20  1  0  0  0  0
 19 21  1  0  0  0  0
 19 22  1  0  0  0  0
  1 23  1  0  0  0  0
 23 24  1  0  0  0  0
 23 25  1  0  0  0  0
 23 26  1  0  0  0  0
M  END
> <VConfSearch Rank>
739

> <Conf_Id>
84

> <Delta U+W>
1.456

> <U+W>
23.298

> <U>
73.042

> <W>
-49.744

> <W(PB)>
-51.966

> <W(SA)>
2.222

> <Valence>
2.938

> <Coulomb>
69.625

> <VdW>
0.478

> <VdW6>
-8.182

> <VdW12>
8.660

> <Bond>
0.253

> <Angle>
1.038

> <Pdih>
1.647

> <Idih>
0.000

> <Tether>
0.000

$$$$
VeraChem MOL file


 26 25  0  0  0  0  0  0  0  0999 V2000     
   22.0989   19.6624   22.3940 N   0  3  0  0  0  0  0  0  0  0  0  0
   21.2465   19.5400   21.8269 H   0  0  0  0  0  0  0  0  0  0  0  0
   22.7671   18.9575   22.0459 H   0  0  0  0  0  0  0  0  0  0  0  0
   21.7887   19.4095   23.8564 C   0  0  0  0  0  0  0  0  0  0  0  0
   21.0839   20.1754   24.1884 H   0  0  0  0  0  0  0  0  0  0  0  0
   22.7173   19.5365   24.4186 H   0  0  0  0  0  0  0  0  0  0  0  0
   21.2071   18.0085   24.1377 C   0  0  0  0  0  0  0  0  0  0  0  0
   21.9449   17.2482   23.8489 H   0  0  0  0  0  0  0  0  0  0  0  0
   21.0635   17.8988   25.2208 H   0  0  0  0  0  0  0  0  0  0  0  0
   19.8669   17.7237   23.4137 C   0  0  0  0  0  0  0  0  0  0  0  0
   19.5437   16.7043   23.6666 H   0  0  0  0  0  0  0  0  0  0  0  0
   20.0196   17.7328   22.3262 H   0  0  0  0  0  0  0  0  0  0  0  0
   18.7449   18.7201   23.7932 C   0  0  0  0  0  0  0  0  0  0  0  0
   18.6122   18.7251   24.8840 H   0  0  0  0  0  0  0  0  0  0  0  0
   19.0326   19.7395   23.5034 H   0  0  0  0  0  0  0  0  0  0  0  0
   17.4044   18.3610   23.1142 C   0  0  0  0  0  0  0  0  0  0  0  0
   17.1006   17.3457   23.4054 H   0  0  0  0  0  0  0  0  0  0  0  0
   17.5316   18.3525   22.0225 H   0  0  0  0  0  0  0  0  0  0  0  0
   16.2871   19.3571   23.4914 C   0  0  0  0  0  0  0  0  0  0  0  0
   16.1131   19.3634   24.5753 H   0  0  0  0  0  0  0  0  0  0  0  0
   15.3436   19.0854   23.0005 H   0  0  0  0  0  0  0  0  0  0  0  0
   16.5463   20.3777   23.1809 H   0  0  0  0  0  0  0  0  0  0  0  0
   22.6608   21.0662   22.2181 C   0  0  0  0  0  0  0  0  0  0  0  0
   23.5779   21.1616   22.8035 H   0  0  0  0  0  0  0  0  0  0  0  0
   22.8786   21.2351   21.1612 H   0  0  0  0  0  0  0  0  0  0  0  0
   21.9236   21.7941   22.5639 H   0  0  0  0  0  0  0  0  0  0  0  0
  1  2  1  0  0  0  0
  1  3  1  0  0  0  0
  1  4  1  0  0  0  0
  4  5  1  0  0  0  0
  4  6  1  0  0  0  0
  4  7  1  0  0  0  0
  7  8  1  0  0  0  0
  7  9  1  0  0  0  0
  7 10  1  0  0  0  0
 10 11  1  0  0  0  0
 10 12  1  0  0  0  0
 10 13  1  0  0  0  0
 13 14  1  0  0  0  0
 13 15  1  0  0  0  0
 13 16  1  0  0  0  0
 16 17  1  0  0  0  0
 16 18  1  0  0  0  0
 16 19  1  0  0  0  0
 19 20  1  0  0  0  0
 19 21  1  0  0  0  0
 19 22  1  0  0  0  0
  1 23  1  0  0  0  0
 23 24  1  0  0  0  0
 23 25  1  0  0  0  0
 23 26  1  0  0  0  0
M  END
> <VConfSearch Rank>
740

> <Conf_Id>
73

> <Delta U+W>
0.884

> <U+W>
22.726

> <U>
71.905

> <W>
-49.179

> <W(PB)>
-51.494

> <W(SA)>
2.315

> <Valence>
2.125

> <Coulomb>
69.686

> <VdW>
0.093

> <VdW6>
-6.766

> <VdW12>
6.859

> <Bond>
0.169

> <Angle>
0.621

> <Pdih>
1.336

> <Idih>
0.000

> <Tether>
0.000

$$$$
VeraChem MOL file


 26 25  0  0  0  0  0  0  0  0999 V2000     
   17.9399   17.0236   21.9512 N   0  3  0  0  0  0  0  0  0  0  0  0
   18.4511   16.1658   22.2113 H   0  0  0  0  0  0  0  0  0  0  0  0
   18.2090   17.2178   20.9741 H   0  0  0  0  0  0  0  0  0  0  0  0
   18.3572   18.1729   22.8468 C   0  0  0  0  0  0  0  0  0  0  0  0
   18.0628   17.9248   23.8696 H   0  0  0  0  0  0  0  0  0  0  0  0
   17.8013   19.0604   22.5341 H   0  0  0  0  0  0  0  0  0  0  0  0
   19.8680   18.4644   22.7989 C   0  0  0  0  0  0  0  0  0  0  0  0
   20.4230   17.5651   23.0977 H   0  0  0  0  0  0  0  0  0  0  0  0
   20.1624   18.6970   21.7667 H   0  0  0  0  0  0  0  0  0  0  0  0
   20.2462   19.6412   23.7255 C   0  0  0  0  0  0  0  0  0  0  0  0
   19.9453   19.4070   24.7562 H   0  0  0  0  0  0  0  0  0  0  0  0
   19.6847   20.5375   23.4268 H   0  0  0  0  0  0  0  0  0  0  0  0
   21.7616   19.9434   23.6855 C   0  0  0  0  0  0  0  0  0  0  0  0
   22.3232   19.0474   23.9842 H   0  0  0  0  0  0  0  0  0  0  0  0
   22.0627   20.1777   22.6549 H   0  0  0  0  0  0  0  0  0  0  0  0
   22.1396   21.1204   24.6123 C   0  0  0  0  0  0  0  0  0  0  0  0
   21.8426   20.8899   25.6451 H   0  0  0  0  0  0  0  0  0  0  0  0
   21.5821   22.0201   24.3159 H   0  0  0  0  0  0  0  0  0  0  0  0
   23.6534   21.4192   24.5697 C   0  0  0  0  0  0  0  0  0  0  0  0
   23.9020   22.2573   25.2337 H   0  0  0  0  0  0  0  0  0  0  0  0
   23.9748   21.6871   23.5548 H   0  0  0  0  0  0  0  0  0  0  0  0
   24.2372   20.5480   24.8943 H   0  0  0  0  0  0  0  0  0  0  0  0
   16.4373   16.8029   22.0576 C   0  0  0  0  0  0  0  0  0  0  0  0
   15.9178   17.7118   21.7460 H   0  0  0  0  0  0  0  0  0  0  0  0
   16.1503   15.9729   21.4081 H   0  0  0  0  0  0  0  0  0  0  0  0
   16.1814   16.5667   23.0928 H   0  0  0  0  0  0  0  0  0  0  0  0
  1  2  1  0  0  0  0
  1  3  1  0  0  0  0
  1  4  1  0  0  0  0
  4  5  1  0  0  0  0
  4  6  1  0  0  0  0
  4  7  1  0  0  0  0
  7  8  1  0  0  0  0
  7  9  1  0  0  0  0
  7 10  1  0  0  0  0
 10 11  1  0  0  0  0
 10 12  1  0  0  0  0
 10 13  1  0  0  0  0
 13 14  1  0  0  0  0
 13 15  1  0  0  0  0
 13 16  1  0  0  0  0
 16 17  1  0  0  0  0
 16 18  1  0  0  0  0
 16 19  1  0  0  0  0
 19 20  1  0  0  0  0
 19 21  1  0  0  0  0
 19 22  1  0  0  0  0
  1 23  1  0  0  0  0
 23 24  1  0  0  0  0
 23 25  1  0  0  0  0
 23 26  1  0  0  0  0
M  END
> <VConfSearch Rank>
741

> <Conf_Id>
11

> <Delta U+W>
0.000

> <U+W>
21.842

> <U>
70.357

> <W>
-48.515

> <W(PB)>
-50.856

> <W(SA)>
2.341

> <Valence>
1.714

> <Coulomb>
68.480

> <VdW>
0.163

> <VdW6>
-5.268

> <VdW12>
5.431

> <Bond>
0.126

> <Angle>
0.350

> <Pdih>
1.238

> <Idih>
0.000

> <Tether>
0.000

$$$$
VeraChem MOL file


 26 25  0  0  0  0  0  0  0  0999 V2000     
   21.5255   16.2124   22.2290 N   0  3  0  0  0  0  0  0  0  0  0  0
   21.9376   15.3622   22.6455 H   0  0  0  0  0  0  0  0  0  0  0  0
   22.3191   16.7057   21.7915 H   0  0  0  0  0  0  0  0  0  0  0  0
   20.9135   17.0695   23.3245 C   0  0  0  0  0  0  0  0  0  0  0  0
   21.6612   17.1676   24.1156 H   0  0  0  0  0  0  0  0  0  0  0  0
   20.0555   16.5304   23.7339 H   0  0  0  0  0  0  0  0  0  0  0  0
   20.4793   18.4774   22.8684 C   0  0  0  0  0  0  0  0  0  0  0  0
   21.3355   18.9929   22.4134 H   0  0  0  0  0  0  0  0  0  0  0  0
   19.7049   18.3948   22.0950 H   0  0  0  0  0  0  0  0  0  0  0  0
   19.9390   19.3112   24.0513 C   0  0  0  0  0  0  0  0  0  0  0  0
   20.7138   19.3922   24.8265 H   0  0  0  0  0  0  0  0  0  0  0  0
   19.0865   18.7889   24.5078 H   0  0  0  0  0  0  0  0  0  0  0  0
   19.5013   20.7259   23.6080 C   0  0  0  0  0  0  0  0  0  0  0  0
   20.3535   21.2481   23.1513 H   0  0  0  0  0  0  0  0  0  0  0  0
   18.7264   20.6451   22.8331 H   0  0  0  0  0  0  0  0  0  0  0  0
   18.9610   21.5596   24.7913 C   0  0  0  0  0  0  0  0  0  0  0  0
   19.7335   21.6455   25.5683 H   0  0  0  0  0  0  0  0  0  0  0  0
   18.1066   21.0424   25.2502 H   0  0  0  0  0  0  0  0  0  0  0  0
   18.5249   22.9714   24.3448 C   0  0  0  0  0  0  0  0  0  0  0  0
   18.1444   23.5477   25.1982 H   0  0  0  0  0  0  0  0  0  0  0  0
   17.7278   22.9190   23.5918 H   0  0  0  0  0  0  0  0  0  0  0  0
   19.3675   23.5268   23.9125 H   0  0  0  0  0  0  0  0  0  0  0  0
   20.4851   15.8246   21.1843 C   0  0  0  0  0  0  0  0  0  0  0  0
   20.1017   16.7266   20.7031 H   0  0  0  0  0  0  0  0  0  0  0  0
   20.9529   15.1805   20.4364 H   0  0  0  0  0  0  0  0  0  0  0  0
   19.6683   15.2890   21.6729 H   0  0  0  0  0  0  0  0  0  0  0  0
  1  2  1  0  0  0  0
  1  3  1  0  0  0  0
  1  4  1  0  0  0  0
  4  5  1  0  0  0  0
  4  6  1  0  0  0  0
  4  7  1  0  0  0  0
  7  8  1  0  0  0  0
  7  9  1  0  0  0  0
  7 10  1  0  0  0  0
 10 11  1  0  0  0  0
 10 12  1  0  0  0  0
 10 13  1  0  0  0  0
 13 14  1  0  0  0  0
 13 15  1  0  0  0  0
 13 16  1  0  0  0  0
 16 17  1  0  0  0  0
 16 18  1  0  0  0  0
 16 19  1  0  0  0  0
 19 20  1  0  0  0  0
 19 21  1  0  0  0  0
 19 22  1  0  0  0  0
  1 23  1  0  0  0  0
 23 24  1  0  0  0  0
 23 25  1  0  0  0  0
 23 26  1  0  0  0  0
M  END
> <VConfSearch Rank>
742

> <Conf_Id>
102

> <Delta U+W>
0.121

> <U+W>
21.963

> <U>
70.745

> <W>
-48.782

> <W(PB)>
-51.111

> <W(SA)>
2.329

> <Valence>
1.993

> <Coulomb>
68.323

> <VdW>
0.429

> <VdW6>
-5.973

> <VdW12>
6.402

> <Bond>
0.161

> <Angle>
0.472

> <Pdih>
1.360

> <Idih>
0.000

> <Tether>
0.000

$$$$
VeraChem MOL file


 26 25  0  0  0  0  0  0  0  0999 V2000     
   20.3423   22.2991   22.3270 N   0  3  0  0  0  0  0  0  0  0  0  0
   20.1416   22.6685   23.2692 H   0  0  0  0  0  0  0  0  0  0  0  0
   19.8707   22.9507   21.6797 H   0  0  0  0  0  0  0  0  0  0  0  0
   19.7493   20.9088   22.1703 C   0  0  0  0  0  0  0  0  0  0  0  0
   20.0167   20.5387   21.1774 H   0  0  0  0  0  0  0  0  0  0  0  0
   18.6620   21.0133   22.2116 H   0  0  0  0  0  0  0  0  0  0  0  0
   20.1963   19.8972   23.2452 C   0  0  0  0  0  0  0  0  0  0  0  0
   21.2840   19.7583   23.1948 H   0  0  0  0  0  0  0  0  0  0  0  0
   19.9686   20.2996   24.2411 H   0  0  0  0  0  0  0  0  0  0  0  0
   19.4940   18.5335   23.0623 C   0  0  0  0  0  0  0  0  0  0  0  0
   19.7191   18.1373   22.0622 H   0  0  0  0  0  0  0  0  0  0  0  0
   18.4050   18.6729   23.1109 H   0  0  0  0  0  0  0  0  0  0  0  0
   19.9325   17.5100   24.1345 C   0  0  0  0  0  0  0  0  0  0  0  0
   21.0214   17.3702   24.0858 H   0  0  0  0  0  0  0  0  0  0  0  0
   19.7079   17.9062   25.1346 H   0  0  0  0  0  0  0  0  0  0  0  0
   19.2299   16.1462   23.9514 C   0  0  0  0  0  0  0  0  0  0  0  0
   19.4535   15.7445   22.9531 H   0  0  0  0  0  0  0  0  0  0  0  0
   18.1402   16.2803   24.0020 H   0  0  0  0  0  0  0  0  0  0  0  0
   19.6704   15.1269   25.0237 C   0  0  0  0  0  0  0  0  0  0  0  0
   20.7521   14.9455   24.9755 H   0  0  0  0  0  0  0  0  0  0  0  0
   19.1611   14.1655   24.8772 H   0  0  0  0  0  0  0  0  0  0  0  0
   19.4286   15.4856   26.0326 H   0  0  0  0  0  0  0  0  0  0  0  0
   21.8423   22.2943   22.0543 C   0  0  0  0  0  0  0  0  0  0  0  0
   22.0223   21.9168   21.0454 H   0  0  0  0  0  0  0  0  0  0  0  0
   22.2241   23.3141   22.1399 H   0  0  0  0  0  0  0  0  0  0  0  0
   22.3408   21.6536   22.7845 H   0  0  0  0  0  0  0  0  0  0  0  0
  1  2  1  0  0  0  0
  1  3  1  0  0  0  0
  1  4  1  0  0  0  0
  4  5  1  0  0  0  0
  4  6  1  0  0  0  0
  4  7  1  0  0  0  0
  7  8  1  0  0  0  0
  7  9  1  0  0  0  0
  7 10  1  0  0  0  0
 10 11  1  0  0  0  0
 10 12  1  0  0  0  0
 10 13  1  0  0  0  0
 13 14  1  0  0  0  0
 13 15  1  0  0  0  0
 13 16  1  0  0  0  0
 16 17  1  0  0  0  0
 16 18  1  0  0  0  0
 16 19  1  0  0  0  0
 19 20  1  0  0  0  0
 19 21  1  0  0  0  0
 19 22  1  0  0  0  0
  1 23  1  0  0  0  0
 23 24  1  0  0  0  0
 23 25  1  0  0  0  0
 23 26  1  0  0  0  0
M  END
> <VConfSearch Rank>
743

> <Conf_Id>
37

> <Delta U+W>
0.125

> <U+W>
21.967

> <U>
70.745

> <W>
-48.778

> <W(PB)>
-51.115

> <W(SA)>
2.337

> <Valence>
1.993

> <Coulomb>
68.323

> <VdW>
0.429

> <VdW6>
-5.973

> <VdW12>
6.403

> <Bond>
0.161

> <Angle>
0.472

> <Pdih>
1.360

> <Idih>
0.000

> <Tether>
0.000

$$$$
VeraChem MOL file


 26 25  0  0  0  0  0  0  0  0999 V2000     
   18.1459   20.7889   21.6144 N   0  3  0  0  0  0  0  0  0  0  0  0
   18.0066   20.3673   20.6829 H   0  0  0  0  0  0  0  0  0  0  0  0
   18.7919   21.5794   21.4641 H   0  0  0  0  0  0  0  0  0  0  0  0
   18.7665   19.7785   22.5581 C   0  0  0  0  0  0  0  0  0  0  0  0
   18.0578   18.9557   22.6817 H   0  0  0  0  0  0  0  0  0  0  0  0
   18.9003   20.2668   23.5262 H   0  0  0  0  0  0  0  0  0  0  0  0
   20.1167   19.2288   22.0589 C   0  0  0  0  0  0  0  0  0  0  0  0
   19.9759   18.7834   21.0650 H   0  0  0  0  0  0  0  0  0  0  0  0
   20.8294   20.0550   21.9349 H   0  0  0  0  0  0  0  0  0  0  0  0
   20.7169   18.1620   23.0052 C   0  0  0  0  0  0  0  0  0  0  0  0
   21.6117   17.7432   22.5267 H   0  0  0  0  0  0  0  0  0  0  0  0
   20.0065   17.3314   23.1183 H   0  0  0  0  0  0  0  0  0  0  0  0
   21.0890   18.7264   24.4002 C   0  0  0  0  0  0  0  0  0  0  0  0
   21.8150   19.5434   24.2878 H   0  0  0  0  0  0  0  0  0  0  0  0
   20.1986   19.1667   24.8680 H   0  0  0  0  0  0  0  0  0  0  0  0
   21.6600   17.6584   25.3646 C   0  0  0  0  0  0  0  0  0  0  0  0
   20.9331   16.8437   25.4899 H   0  0  0  0  0  0  0  0  0  0  0  0
   21.7857   18.1124   26.3576 H   0  0  0  0  0  0  0  0  0  0  0  0
   23.0185   17.0782   24.9089 C   0  0  0  0  0  0  0  0  0  0  0  0
   22.9213   16.5031   23.9799 H   0  0  0  0  0  0  0  0  0  0  0  0
   23.4228   16.4020   25.6732 H   0  0  0  0  0  0  0  0  0  0  0  0
   23.7540   17.8763   24.7448 H   0  0  0  0  0  0  0  0  0  0  0  0
   16.8215   21.2816   22.1811 C   0  0  0  0  0  0  0  0  0  0  0  0
   16.9986   21.7528   23.1504 H   0  0  0  0  0  0  0  0  0  0  0  0
   16.3853   22.0082   21.4920 H   0  0  0  0  0  0  0  0  0  0  0  0
   16.1440   20.4332   22.3002 H   0  0  0  0  0  0  0  0  0  0  0  0
  1  2  1  0  0  0  0
  1  3  1  0  0  0  0
  1  4  1  0  0  0  0
  4  5  1  0  0  0  0
  4  6  1  0  0  0  0
  4  7  1  0  0  0  0
  7  8  1  0  0  0  0
  7  9  1  0  0  0  0
  7 10  1  0  0  0  0
 10 11  1  0  0  0  0
 10 12  1  0  0  0  0
 10 13  1  0  0  0  0
 13 14  1  0  0  0  0
 13 15  1  0  0  0  0
 13 16  1  0  0  0  0
 16 17  1  0  0  0  0
 16 18  1  0  0  0  0
 16 19  1  0  0  0  0
 19 20  1  0  0  0  0
 19 21  1  0  0  0  0
 19 22  1  0  0  0  0
  1 23  1  0  0  0  0
 23 24  1  0  0  0  0
 23 25  1  0  0  0  0
 23 26  1  0  0  0  0
M  END
> <VConfSearch Rank>
744

> <Conf_Id>
137

> <Delta U+W>
1.038

> <U+W>
22.880

> <U>
71.810

> <W>
-48.930

> <W(PB)>
-51.257

> <W(SA)>
2.327

> <Valence>
2.568

> <Coulomb>
68.877

> <VdW>
0.364

> <VdW6>
-6.470

> <VdW12>
6.834

> <Bond>
0.191

> <Angle>
0.752

> <Pdih>
1.626

> <Idih>
0.000

> <Tether>
0.000

$$$$
VeraChem MOL file


 26 25  0  0  0  0  0  0  0  0999 V2000     
   18.0848   19.6379   25.4225 N   0  3  0  0  0  0  0  0  0  0  0  0
   18.4831   20.5889   25.4653 H   0  0  0  0  0  0  0  0  0  0  0  0
   18.5742   19.1019   26.1559 H   0  0  0  0  0  0  0  0  0  0  0  0
   18.3458   19.0220   24.0625 C   0  0  0  0  0  0  0  0  0  0  0  0
   17.8188   19.6217   23.3161 H   0  0  0  0  0  0  0  0  0  0  0  0
   17.9168   18.0168   24.0620 H   0  0  0  0  0  0  0  0  0  0  0  0
   19.8413   18.9472   23.7047 C   0  0  0  0  0  0  0  0  0  0  0  0
   20.2646   19.9592   23.7270 H   0  0  0  0  0  0  0  0  0  0  0  0
   20.3692   18.3575   24.4659 H   0  0  0  0  0  0  0  0  0  0  0  0
   20.0552   18.3101   22.3113 C   0  0  0  0  0  0  0  0  0  0  0  0
   19.5682   18.9268   21.5430 H   0  0  0  0  0  0  0  0  0  0  0  0
   19.5529   17.3329   22.2852 H   0  0  0  0  0  0  0  0  0  0  0  0
   21.5459   18.1055   21.9446 C   0  0  0  0  0  0  0  0  0  0  0  0
   22.0288   17.4742   22.7033 H   0  0  0  0  0  0  0  0  0  0  0  0
   21.5983   17.5459   21.0004 H   0  0  0  0  0  0  0  0  0  0  0  0
   22.3334   19.4283   21.7887 C   0  0  0  0  0  0  0  0  0  0  0  0
   22.3616   19.9684   22.7443 H   0  0  0  0  0  0  0  0  0  0  0  0
   21.8222   20.0819   21.0680 H   0  0  0  0  0  0  0  0  0  0  0  0
   23.7805   19.1768   21.3136 C   0  0  0  0  0  0  0  0  0  0  0  0
   24.3275   18.5497   22.0295 H   0  0  0  0  0  0  0  0  0  0  0  0
   24.3251   20.1244   21.2111 H   0  0  0  0  0  0  0  0  0  0  0  0
   23.7946   18.6736   20.3379 H   0  0  0  0  0  0  0  0  0  0  0  0
   16.5876   19.6735   25.6963 C   0  0  0  0  0  0  0  0  0  0  0  0
   16.1950   18.6544   25.6788 H   0  0  0  0  0  0  0  0  0  0  0  0
   16.4135   20.1190   26.6783 H   0  0  0  0  0  0  0  0  0  0  0  0
   16.0959   20.2728   24.9269 H   0  0  0  0  0  0  0  0  0  0  0  0
  1  2  1  0  0  0  0
  1  3  1  0  0  0  0
  1  4  1  0  0  0  0
  4  5  1  0  0  0  0
  4  6  1  0  0  0  0
  4  7  1  0  0  0  0
  7  8  1  0  0  0  0
  7  9  1  0  0  0  0
  7 10  1  0  0  0  0
 10 11  1  0  0  0  0
 10 12  1  0  0  0  0
 10 13  1  0  0  0  0
 13 14  1  0  0  0  0
 13 15  1  0  0  0  0
 13 16  1  0  0  0  0
 16 17  1  0  0  0  0
 16 18  1  0  0  0  0
 16 19  1  0  0  0  0
 19 20  1  0  0  0  0
 19 21  1  0  0  0  0
 19 22  1  0  0  0  0
  1 23  1  0  0  0  0
 23 24  1  0  0  0  0
 23 25  1  0  0  0  0
 23 26  1  0  0  0  0
M  END
> <VConfSearch Rank>
745

> <Conf_Id>
35

> <Delta U+W>
0.670

> <U+W>
22.512

> <U>
71.348

> <W>
-48.837

> <W(PB)>
-51.150

> <W(SA)>
2.313

> <Valence>
2.262

> <Coulomb>
68.807

> <VdW>
0.280

> <VdW6>
-5.915

> <VdW12>
6.195

> <Bond>
0.164

> <Angle>
0.622

> <Pdih>
1.475

> <Idih>
0.000

> <Tether>
0.000

$$$$
VeraChem MOL file


 26 25  0  0  0  0  0  0  0  0999 V2000     
   22.1753   19.1380   21.2409 N   0  3  0  0  0  0  0  0  0  0  0  0
   21.5350   19.2409   20.4383 H   0  0  0  0  0  0  0  0  0  0  0  0
   22.2754   18.1209   21.3837 H   0  0  0  0  0  0  0  0  0  0  0  0
   21.5756   19.7830   22.4743 C   0  0  0  0  0  0  0  0  0  0  0  0
   21.4794   20.8540   22.2791 H   0  0  0  0  0  0  0  0  0  0  0  0
   22.2783   19.6452   23.3000 H   0  0  0  0  0  0  0  0  0  0  0  0
   20.2033   19.2013   22.8596 C   0  0  0  0  0  0  0  0  0  0  0  0
   19.5055   19.3273   22.0212 H   0  0  0  0  0  0  0  0  0  0  0  0
   20.3091   18.1233   23.0345 H   0  0  0  0  0  0  0  0  0  0  0  0
   19.6330   19.8927   24.1205 C   0  0  0  0  0  0  0  0  0  0  0  0
   19.6129   20.9787   23.9532 H   0  0  0  0  0  0  0  0  0  0  0  0
   20.3071   19.7251   24.9721 H   0  0  0  0  0  0  0  0  0  0  0  0
   18.2032   19.4267   24.4908 C   0  0  0  0  0  0  0  0  0  0  0  0
   17.8379   20.0495   25.3191 H   0  0  0  0  0  0  0  0  0  0  0  0
   17.5252   19.6107   23.6458 H   0  0  0  0  0  0  0  0  0  0  0  0
   18.1245   17.9390   24.9085 C   0  0  0  0  0  0  0  0  0  0  0  0
   18.8400   17.7426   25.7192 H   0  0  0  0  0  0  0  0  0  0  0  0
   18.4103   17.2929   24.0679 H   0  0  0  0  0  0  0  0  0  0  0  0
   16.7046   17.5530   25.3755 C   0  0  0  0  0  0  0  0  0  0  0  0
   16.3978   18.1507   26.2437 H   0  0  0  0  0  0  0  0  0  0  0  0
   16.6659   16.4949   25.6650 H   0  0  0  0  0  0  0  0  0  0  0  0
   15.9696   17.7103   24.5753 H   0  0  0  0  0  0  0  0  0  0  0  0
   23.5257   19.7690   20.9309 C   0  0  0  0  0  0  0  0  0  0  0  0
   24.1958   19.6188   21.7802 H   0  0  0  0  0  0  0  0  0  0  0  0
   23.9464   19.2958   20.0409 H   0  0  0  0  0  0  0  0  0  0  0  0
   23.3899   20.8378   20.7511 H   0  0  0  0  0  0  0  0  0  0  0  0
  1  2  1  0  0  0  0
  1  3  1  0  0  0  0
  1  4  1  0  0  0  0
  4  5  1  0  0  0  0
  4  6  1  0  0  0  0
  4  7  1  0  0  0  0
  7  8  1  0  0  0  0
  7  9  1  0  0  0  0
  7 10  1  0  0  0  0
 10 11  1  0  0  0  0
 10 12  1  0  0  0  0
 10 13  1  0  0  0  0
 13 14  1  0  0  0  0
 13 15  1  0  0  0  0
 13 16  1  0  0  0  0
 16 17  1  0  0  0  0
 16 18  1  0  0  0  0
 16 19  1  0  0  0  0
 19 20  1  0  0  0  0
 19 21  1  0  0  0  0
 19 22  1  0  0  0  0
  1 23  1  0  0  0  0
 23 24  1  0  0  0  0
 23 25  1  0  0  0  0
 23 26  1  0  0  0  0
M  END
> <VConfSearch Rank>
746

> <Conf_Id>
36

> <Delta U+W>
0.662

> <U+W>
22.504

> <U>
71.348

> <W>
-48.844

> <W(PB)>
-51.157

> <W(SA)>
2.313

> <Valence>
2.262

> <Coulomb>
68.807

> <VdW>
0.280

> <VdW6>
-5.916

> <VdW12>
6.195

> <Bond>
0.164

> <Angle>
0.622

> <Pdih>
1.475

> <Idih>
0.000

> <Tether>
0.000

$$$$
VeraChem MOL file


 26 25  0  0  0  0  0  0  0  0999 V2000     
   19.5336   16.8257   21.3918 N   0  3  0  0  0  0  0  0  0  0  0  0
   19.7503   17.3345   20.5206 H   0  0  0  0  0  0  0  0  0  0  0  0
   18.5459   16.5403   21.3044 H   0  0  0  0  0  0  0  0  0  0  0  0
   19.7103   17.7386   22.5884 C   0  0  0  0  0  0  0  0  0  0  0  0
   20.7649   18.0195   22.6396 H   0  0  0  0  0  0  0  0  0  0  0  0
   19.4615   17.1669   23.4860 H   0  0  0  0  0  0  0  0  0  0  0  0
   18.8357   19.0055   22.5220 C   0  0  0  0  0  0  0  0  0  0  0  0
   19.0844   19.5791   21.6191 H   0  0  0  0  0  0  0  0  0  0  0  0
   17.7824   18.7098   22.4264 H   0  0  0  0  0  0  0  0  0  0  0  0
   18.9928   19.9062   23.7698 C   0  0  0  0  0  0  0  0  0  0  0  0
   18.7168   19.3379   24.6690 H   0  0  0  0  0  0  0  0  0  0  0  0
   18.2777   20.7373   23.6966 H   0  0  0  0  0  0  0  0  0  0  0  0
   20.4222   20.4777   23.9314 C   0  0  0  0  0  0  0  0  0  0  0  0
   21.1427   19.6581   24.0555 H   0  0  0  0  0  0  0  0  0  0  0  0
   20.7077   21.0169   23.0176 H   0  0  0  0  0  0  0  0  0  0  0  0
   20.5260   21.4302   25.1435 C   0  0  0  0  0  0  0  0  0  0  0  0
   20.2406   20.8961   26.0607 H   0  0  0  0  0  0  0  0  0  0  0  0
   19.8149   22.2600   25.0260 H   0  0  0  0  0  0  0  0  0  0  0  0
   21.9523   21.9982   25.3046 C   0  0  0  0  0  0  0  0  0  0  0  0
   22.6829   21.1935   25.4594 H   0  0  0  0  0  0  0  0  0  0  0  0
   22.0058   22.6722   26.1695 H   0  0  0  0  0  0  0  0  0  0  0  0
   22.2537   22.5671   24.4154 H   0  0  0  0  0  0  0  0  0  0  0  0
   20.4318   15.6048   21.5348 C   0  0  0  0  0  0  0  0  0  0  0  0
   20.1620   15.0651   22.4452 H   0  0  0  0  0  0  0  0  0  0  0  0
   20.2948   14.9557   20.6670 H   0  0  0  0  0  0  0  0  0  0  0  0
   21.4731   15.9295   21.5917 H   0  0  0  0  0  0  0  0  0  0  0  0
  1  2  1  0  0  0  0
  1  3  1  0  0  0  0
  1  4  1  0  0  0  0
  4  5  1  0  0  0  0
  4  6  1  0  0  0  0
  4  7  1  0  0  0  0
  7  8  1  0  0  0  0
  7  9  1  0  0  0  0
  7 10  1  0  0  0  0
 10 11  1  0  0  0  0
 10 12  1  0  0  0  0
 10 13  1  0  0  0  0
 13 14  1  0  0  0  0
 13 15  1  0  0  0  0
 13 16  1  0  0  0  0
 16 17  1  0  0  0  0
 16 18  1  0  0  0  0
 16 19  1  0  0  0  0
 19 20  1  0  0  0  0
 19 21  1  0  0  0  0
 19 22  1  0  0  0  0
  1 23  1  0  0  0  0
 23 24  1  0  0  0  0
 23 25  1  0  0  0  0
 23 26  1  0  0  0  0
M  END
> <VConfSearch Rank>
747

> <Conf_Id>
46

> <Delta U+W>
0.496

> <U+W>
22.338

> <U>
71.138

> <W>
-48.799

> <W(PB)>
-51.136

> <W(SA)>
2.337

> <Valence>
2.016

> <Coulomb>
68.932

> <VdW>
0.190

> <VdW6>
-5.902

> <VdW12>
6.092

> <Bond>
0.149

> <Angle>
0.477

> <Pdih>
1.390

> <Idih>
0.000

> <Tether>
0.000

$$$$
VeraChem MOL file


 26 25  0  0  0  0  0  0  0  0999 V2000     
   20.9891   20.6738   20.9256 N   0  3  0  0  0  0  0  0  0  0  0  0
   20.9412   20.2211   19.9996 H   0  0  0  0  0  0  0  0  0  0  0  0
   21.9860   20.6506   21.1911 H   0  0  0  0  0  0  0  0  0  0  0  0
   20.1621   19.8977   21.9306 C   0  0  0  0  0  0  0  0  0  0  0  0
   19.1185   19.9375   21.6083 H   0  0  0  0  0  0  0  0  0  0  0  0
   20.2452   20.4068   22.8937 H   0  0  0  0  0  0  0  0  0  0  0  0
   20.6033   18.4286   22.0773 C   0  0  0  0  0  0  0  0  0  0  0  0
   20.5573   17.9403   21.0947 H   0  0  0  0  0  0  0  0  0  0  0  0
   21.6524   18.3886   22.3994 H   0  0  0  0  0  0  0  0  0  0  0  0
   19.7231   17.6369   23.0730 C   0  0  0  0  0  0  0  0  0  0  0  0
   20.0352   16.5833   23.0583 H   0  0  0  0  0  0  0  0  0  0  0  0
   18.6782   17.6556   22.7333 H   0  0  0  0  0  0  0  0  0  0  0  0
   19.8109   18.1734   24.5223 C   0  0  0  0  0  0  0  0  0  0  0  0
   20.8607   18.1846   24.8468 H   0  0  0  0  0  0  0  0  0  0  0  0
   19.4549   19.2116   24.5608 H   0  0  0  0  0  0  0  0  0  0  0  0
   18.9793   17.3167   25.5029 C   0  0  0  0  0  0  0  0  0  0  0  0
   19.3328   16.2763   25.4793 H   0  0  0  0  0  0  0  0  0  0  0  0
   17.9281   17.3013   25.1826 H   0  0  0  0  0  0  0  0  0  0  0  0
   19.0663   17.8537   26.9476 C   0  0  0  0  0  0  0  0  0  0  0  0
   20.1030   17.8495   27.3087 H   0  0  0  0  0  0  0  0  0  0  0  0
   18.4702   17.2325   27.6286 H   0  0  0  0  0  0  0  0  0  0  0  0
   18.6865   18.8818   27.0105 H   0  0  0  0  0  0  0  0  0  0  0  0
   20.4913   22.1103   20.8444 C   0  0  0  0  0  0  0  0  0  0  0  0
   21.0951   22.6580   20.1173 H   0  0  0  0  0  0  0  0  0  0  0  0
   19.4453   22.1106   20.5301 H   0  0  0  0  0  0  0  0  0  0  0  0
   20.5829   22.5783   21.8270 H   0  0  0  0  0  0  0  0  0  0  0  0
  1  2  1  0  0  0  0
  1  3  1  0  0  0  0
  1  4  1  0  0  0  0
  4  5  1  0  0  0  0
  4  6  1  0  0  0  0
  4  7  1  0  0  0  0
  7  8  1  0  0  0  0
  7  9  1  0  0  0  0
  7 10  1  0  0  0  0
 10 11  1  0  0  0  0
 10 12  1  0  0  0  0
 10 13  1  0  0  0  0
 13 14  1  0  0  0  0
 13 15  1  0  0  0  0
 13 16  1  0  0  0  0
 16 17  1  0  0  0  0
 16 18  1  0  0  0  0
 16 19  1  0  0  0  0
 19 20  1  0  0  0  0
 19 21  1  0  0  0  0
 19 22  1  0  0  0  0
  1 23  1  0  0  0  0
 23 24  1  0  0  0  0
 23 25  1  0  0  0  0
 23 26  1  0  0  0  0
M  END
> <VConfSearch Rank>
748

> <Conf_Id>
45

> <Delta U+W>
0.471

> <U+W>
22.313

> <U>
71.138

> <W>
-48.825

> <W(PB)>
-51.169

> <W(SA)>
2.344

> <Valence>
2.016

> <Coulomb>
68.932

> <VdW>
0.190

> <VdW6>
-5.902

> <VdW12>
6.092

> <Bond>
0.149

> <Angle>
0.477

> <Pdih>
1.390

> <Idih>
0.000

> <Tether>
0.000

$$$$
VeraChem MOL file


 26 25  0  0  0  0  0  0  0  0999 V2000     
   20.7826   17.5881   25.2851 N   0  3  0  0  0  0  0  0  0  0  0  0
   20.6850   18.5550   25.6298 H   0  0  0  0  0  0  0  0  0  0  0  0
   21.7117   17.5460   24.8384 H   0  0  0  0  0  0  0  0  0  0  0  0
   19.6999   17.2867   24.2669 C   0  0  0  0  0  0  0  0  0  0  0  0
   18.7335   17.3497   24.7735 H   0  0  0  0  0  0  0  0  0  0  0  0
   19.8417   16.2568   23.9295 H   0  0  0  0  0  0  0  0  0  0  0  0
   19.7090   18.2300   23.0479 C   0  0  0  0  0  0  0  0  0  0  0  0
   20.6820   18.1578   22.5459 H   0  0  0  0  0  0  0  0  0  0  0  0
   18.9571   17.8763   22.3301 H   0  0  0  0  0  0  0  0  0  0  0  0
   19.4026   19.6997   23.4306 C   0  0  0  0  0  0  0  0  0  0  0  0
   20.1967   20.0951   24.0779 H   0  0  0  0  0  0  0  0  0  0  0  0
   18.4773   19.7285   24.0229 H   0  0  0  0  0  0  0  0  0  0  0  0
   19.2304   20.6326   22.2066 C   0  0  0  0  0  0  0  0  0  0  0  0
   18.4204   20.2559   21.5668 H   0  0  0  0  0  0  0  0  0  0  0  0
   18.9059   21.6198   22.5639 H   0  0  0  0  0  0  0  0  0  0  0  0
   20.5211   20.8002   21.3699 C   0  0  0  0  0  0  0  0  0  0  0  0
   20.8218   19.8360   20.9389 H   0  0  0  0  0  0  0  0  0  0  0  0
   21.3443   21.1298   22.0190 H   0  0  0  0  0  0  0  0  0  0  0  0
   20.3307   21.8210   20.2277 C   0  0  0  0  0  0  0  0  0  0  0  0
   19.5330   21.5036   19.5435 H   0  0  0  0  0  0  0  0  0  0  0  0
   21.2539   21.9255   19.6431 H   0  0  0  0  0  0  0  0  0  0  0  0
   20.0686   22.8114   20.6222 H   0  0  0  0  0  0  0  0  0  0  0  0
   20.6987   16.5990   26.4393 C   0  0  0  0  0  0  0  0  0  0  0  0
   20.8360   15.5860   26.0547 H   0  0  0  0  0  0  0  0  0  0  0  0
   21.4827   16.8276   27.1647 H   0  0  0  0  0  0  0  0  0  0  0  0
   19.7194   16.6847   26.9152 H   0  0  0  0  0  0  0  0  0  0  0  0
  1  2  1  0  0  0  0
  1  3  1  0  0  0  0
  1  4  1  0  0  0  0
  4  5  1  0  0  0  0
  4  6  1  0  0  0  0
  4  7  1  0  0  0  0
  7  8  1  0  0  0  0
  7  9  1  0  0  0  0
  7 10  1  0  0  0  0
 10 11  1  0  0  0  0
 10 12  1  0  0  0  0
 10 13  1  0  0  0  0
 13 14  1  0  0  0  0
 13 15  1  0  0  0  0
 13 16  1  0  0  0  0
 16 17  1  0  0  0  0
 16 18  1  0  0  0  0
 16 19  1  0  0  0  0
 19 20  1  0  0  0  0
 19 21  1  0  0  0  0
 19 22  1  0  0  0  0
  1 23  1  0  0  0  0
 23 24  1  0  0  0  0
 23 25  1  0  0  0  0
 23 26  1  0  0  0  0
M  END
> <VConfSearch Rank>
749

> <Conf_Id>
143

> <Delta U+W>
0.915

> <U+W>
22.757

> <U>
71.994

> <W>
-49.237

> <W(PB)>
-51.537

> <W(SA)>
2.300

> <Valence>
2.376

> <Coulomb>
69.315

> <VdW>
0.303

> <VdW6>
-6.508

> <VdW12>
6.810

> <Bond>
0.182

> <Angle>
0.660

> <Pdih>
1.534

> <Idih>
0.000

> <Tether>
0.000

$$$$
VeraChem MOL file


 26 25  0  0  0  0  0  0  0  0999 V2000     
   17.9959   17.4511   23.7373 N   0  3  0  0  0  0  0  0  0  0  0  0
   17.5055   18.3572   23.6985 H   0  0  0  0  0  0  0  0  0  0  0  0
   18.2464   17.3148   24.7289 H   0  0  0  0  0  0  0  0  0  0  0  0
   19.2492   17.4990   22.8844 C   0  0  0  0  0  0  0  0  0  0  0  0
   18.9459   17.6540   21.8460 H   0  0  0  0  0  0  0  0  0  0  0  0
   19.7321   16.5211   22.9562 H   0  0  0  0  0  0  0  0  0  0  0  0
   20.2512   18.5937   23.3016 C   0  0  0  0  0  0  0  0  0  0  0  0
   20.5314   18.4538   24.3540 H   0  0  0  0  0  0  0  0  0  0  0  0
   21.1625   18.4571   22.7068 H   0  0  0  0  0  0  0  0  0  0  0  0
   19.7018   20.0242   23.0799 C   0  0  0  0  0  0  0  0  0  0  0  0
   18.7350   20.1282   23.5896 H   0  0  0  0  0  0  0  0  0  0  0  0
   19.5005   20.1747   22.0102 H   0  0  0  0  0  0  0  0  0  0  0  0
   20.6334   21.1535   23.5918 C   0  0  0  0  0  0  0  0  0  0  0  0
   20.1189   22.1091   23.4193 H   0  0  0  0  0  0  0  0  0  0  0  0
   20.7559   21.0775   24.6811 H   0  0  0  0  0  0  0  0  0  0  0  0
   22.0194   21.2210   22.8996 C   0  0  0  0  0  0  0  0  0  0  0  0
   22.3116   22.2762   22.8037 H   0  0  0  0  0  0  0  0  0  0  0  0
   21.9541   20.8324   21.8737 H   0  0  0  0  0  0  0  0  0  0  0  0
   23.1337   20.4883   23.6831 C   0  0  0  0  0  0  0  0  0  0  0  0
   22.9219   19.4200   23.8017 H   0  0  0  0  0  0  0  0  0  0  0  0
   23.2574   20.9207   24.6845 H   0  0  0  0  0  0  0  0  0  0  0  0
   24.0946   20.5805   23.1606 H   0  0  0  0  0  0  0  0  0  0  0  0
   17.0846   16.3303   23.2569 C   0  0  0  0  0  0  0  0  0  0  0  0
   17.6135   15.3781   23.3372 H   0  0  0  0  0  0  0  0  0  0  0  0
   16.1868   16.3071   23.8787 H   0  0  0  0  0  0  0  0  0  0  0  0
   16.8080   16.5135   22.2163 H   0  0  0  0  0  0  0  0  0  0  0  0
  1  2  1  0  0  0  0
  1  3  1  0  0  0  0
  1  4  1  0  0  0  0
  4  5  1  0  0  0  0
  4  6  1  0  0  0  0
  4  7  1  0  0  0  0
  7  8  1  0  0  0  0
  7  9  1  0  0  0  0
  7 10  1  0  0  0  0
 10 11  1  0  0  0  0
 10 12  1  0  0  0  0
 10 13  1  0  0  0  0
 13 14  1  0  0  0  0
 13 15  1  0  0  0  0
 13 16  1  0  0  0  0
 16 17  1  0  0  0  0
 16 18  1  0  0  0  0
 16 19  1  0  0  0  0
 19 20  1  0  0  0  0
 19 21  1  0  0  0  0
 19 22  1  0  0  0  0
  1 23  1  0  0  0  0
 23 24  1  0  0  0  0
 23 25  1  0  0  0  0
 23 26  1  0  0  0  0
M  END
> <VConfSearch Rank>
750

> <Conf_Id>
76

> <Delta U+W>
3.468

> <U+W>
25.310

> <U>
74.594

> <W>
-49.283

> <W(PB)>
-51.537

> <W(SA)>
2.253

> <Valence>
4.886

> <Coulomb>
69.332

> <VdW>
0.376

> <VdW6>
-7.329

> <VdW12>
7.705

> <Bond>
0.232

> <Angle>
1.251

> <Pdih>
3.403

> <Idih>
0.000

> <Tether>
0.000

$$$$
VeraChem MOL file


 26 25  0  0  0  0  0  0  0  0999 V2000     
   19.1016   21.3930   22.2488 N   0  3  0  0  0  0  0  0  0  0  0  0
   18.4461   20.7634   21.7604 H   0  0  0  0  0  0  0  0  0  0  0  0
   19.8237   21.6324   21.5516 H   0  0  0  0  0  0  0  0  0  0  0  0
   19.7305   20.6802   23.4293 C   0  0  0  0  0  0  0  0  0  0  0  0
   18.9343   20.4387   24.1379 H   0  0  0  0  0  0  0  0  0  0  0  0
   20.4214   21.3761   23.9117 H   0  0  0  0  0  0  0  0  0  0  0  0
   20.4806   19.3949   23.0357 C   0  0  0  0  0  0  0  0  0  0  0  0
   19.7870   18.7138   22.5301 H   0  0  0  0  0  0  0  0  0  0  0  0
   21.2677   19.6421   22.3110 H   0  0  0  0  0  0  0  0  0  0  0  0
   21.1127   18.7111   24.2719 C   0  0  0  0  0  0  0  0  0  0  0  0
   20.3457   18.5098   25.0326 H   0  0  0  0  0  0  0  0  0  0  0  0
   21.8160   19.4198   24.7310 H   0  0  0  0  0  0  0  0  0  0  0  0
   21.8815   17.4071   23.9328 C   0  0  0  0  0  0  0  0  0  0  0  0
   22.2955   17.4611   22.9165 H   0  0  0  0  0  0  0  0  0  0  0  0
   22.7504   17.3387   24.6020 H   0  0  0  0  0  0  0  0  0  0  0  0
   21.0586   16.1044   24.1044 C   0  0  0  0  0  0  0  0  0  0  0  0
   20.7375   16.0066   25.1509 H   0  0  0  0  0  0  0  0  0  0  0  0
   21.7183   15.2476   23.9082 H   0  0  0  0  0  0  0  0  0  0  0  0
   19.8263   16.0017   23.1791 C   0  0  0  0  0  0  0  0  0  0  0  0
   20.1039   16.1622   22.1293 H   0  0  0  0  0  0  0  0  0  0  0  0
   19.0583   16.7347   23.4549 H   0  0  0  0  0  0  0  0  0  0  0  0
   19.3705   15.0062   23.2571 H   0  0  0  0  0  0  0  0  0  0  0  0
   18.3823   22.6476   22.7246 C   0  0  0  0  0  0  0  0  0  0  0  0
   17.6020   22.3665   23.4354 H   0  0  0  0  0  0  0  0  0  0  0  0
   19.1014   23.3124   23.2082 H   0  0  0  0  0  0  0  0  0  0  0  0
   17.9342   23.1513   21.8652 H   0  0  0  0  0  0  0  0  0  0  0  0
  1  2  1  0  0  0  0
  1  3  1  0  0  0  0
  1  4  1  0  0  0  0
  4  5  1  0  0  0  0
  4  6  1  0  0  0  0
  4  7  1  0  0  0  0
  7  8  1  0  0  0  0
  7  9  1  0  0  0  0
  7 10  1  0  0  0  0
 10 11  1  0  0  0  0
 10 12  1  0  0  0  0
 10 13  1  0  0  0  0
 13 14  1  0  0  0  0
 13 15  1  0  0  0  0
 13 16  1  0  0  0  0
 16 17  1  0  0  0  0
 16 18  1  0  0  0  0
 16 19  1  0  0  0  0
 19 20  1  0  0  0  0
 19 21  1  0  0  0  0
 19 22  1  0  0  0  0
  1 23  1  0  0  0  0
 23 24  1  0  0  0  0
 23 25  1  0  0  0  0
 23 26  1  0  0  0  0
M  END
> <VConfSearch Rank>
751

> <Conf_Id>
123

> <Delta U+W>
3.101

> <U+W>
24.943

> <U>
74.070

> <W>
-49.127

> <W(PB)>
-51.421

> <W(SA)>
2.295

> <Valence>
4.690

> <Coulomb>
69.115

> <VdW>
0.266

> <VdW6>
-6.809

> <VdW12>
7.075

> <Bond>
0.212

> <Angle>
1.133

> <Pdih>
3.345

> <Idih>
0.000

> <Tether>
0.000

$$$$
VeraChem MOL file


 26 25  0  0  0  0  0  0  0  0999 V2000     
   18.1164   19.6152   24.9721 N   0  3  0  0  0  0  0  0  0  0  0  0
   17.2890   19.2889   24.4491 H   0  0  0  0  0  0  0  0  0  0  0  0
   18.3525   20.5349   24.5702 H   0  0  0  0  0  0  0  0  0  0  0  0
   19.2702   18.6503   24.7780 C   0  0  0  0  0  0  0  0  0  0  0  0
   18.9768   17.6937   25.2178 H   0  0  0  0  0  0  0  0  0  0  0  0
   20.1280   19.0336   25.3363 H   0  0  0  0  0  0  0  0  0  0  0  0
   19.6657   18.4345   23.3039 C   0  0  0  0  0  0  0  0  0  0  0  0
   20.4246   17.6451   23.2654 H   0  0  0  0  0  0  0  0  0  0  0  0
   18.7994   18.0551   22.7459 H   0  0  0  0  0  0  0  0  0  0  0  0
   20.2000   19.7261   22.6336 C   0  0  0  0  0  0  0  0  0  0  0  0
   21.0050   20.1662   23.2385 H   0  0  0  0  0  0  0  0  0  0  0  0
   19.3923   20.4698   22.6144 H   0  0  0  0  0  0  0  0  0  0  0  0
   20.6889   19.5067   21.1779 C   0  0  0  0  0  0  0  0  0  0  0  0
   20.1317   18.6847   20.7077 H   0  0  0  0  0  0  0  0  0  0  0  0
   20.4398   20.4038   20.5942 H   0  0  0  0  0  0  0  0  0  0  0  0
   22.2140   19.2675   21.0352 C   0  0  0  0  0  0  0  0  0  0  0  0
   22.7610   20.1417   21.4152 H   0  0  0  0  0  0  0  0  0  0  0  0
   22.4574   19.1987   19.9657 H   0  0  0  0  0  0  0  0  0  0  0  0
   22.7284   17.9946   21.7425 C   0  0  0  0  0  0  0  0  0  0  0  0
   22.1618   17.1091   21.4268 H   0  0  0  0  0  0  0  0  0  0  0  0
   22.6555   18.0870   22.8331 H   0  0  0  0  0  0  0  0  0  0  0  0
   23.7846   17.8211   21.4990 H   0  0  0  0  0  0  0  0  0  0  0  0
   17.7947   19.7472   26.4542 C   0  0  0  0  0  0  0  0  0  0  0  0
   18.6745   20.1236   26.9805 H   0  0  0  0  0  0  0  0  0  0  0  0
   16.9633   20.4445   26.5796 H   0  0  0  0  0  0  0  0  0  0  0  0
   17.5174   18.7677   26.8500 H   0  0  0  0  0  0  0  0  0  0  0  0
  1  2  1  0  0  0  0
  1  3  1  0  0  0  0
  1  4  1  0  0  0  0
  4  5  1  0  0  0  0
  4  6  1  0  0  0  0
  4  7  1  0  0  0  0
  7  8  1  0  0  0  0
  7  9  1  0  0  0  0
  7 10  1  0  0  0  0
 10 11  1  0  0  0  0
 10 12  1  0  0  0  0
 10 13  1  0  0  0  0
 13 14  1  0  0  0  0
 13 15  1  0  0  0  0
 13 16  1  0  0  0  0
 16 17  1  0  0  0  0
 16 18  1  0  0  0  0
 16 19  1  0  0  0  0
 19 20  1  0  0  0  0
 19 21  1  0  0  0  0
 19 22  1  0  0  0  0
  1 23  1  0  0  0  0
 23 24  1  0  0  0  0
 23 25  1  0  0  0  0
 23 26  1  0  0  0  0
M  END
> <VConfSearch Rank>
752

> <Conf_Id>
111

> <Delta U+W>
3.383

> <U+W>
25.225

> <U>
74.516

> <W>
-49.292

> <W(PB)>
-51.558

> <W(SA)>
2.266

> <Valence>
4.842

> <Coulomb>
69.333

> <VdW>
0.342

> <VdW6>
-7.369

> <VdW12>
7.711

> <Bond>
0.232

> <Angle>
1.153

> <Pdih>
3.457

> <Idih>
0.000

> <Tether>
0.000

$$$$
VeraChem MOL file


 26 25  0  0  0  0  0  0  0  0999 V2000     
   21.9490   20.5059   23.6744 N   0  3  0  0  0  0  0  0  0  0  0  0
   22.1574   20.6925   24.6675 H   0  0  0  0  0  0  0  0  0  0  0  0
   20.9979   20.8717   23.5173 H   0  0  0  0  0  0  0  0  0  0  0  0
   21.9806   19.0140   23.4064 C   0  0  0  0  0  0  0  0  0  0  0  0
   22.9991   18.6653   23.5948 H   0  0  0  0  0  0  0  0  0  0  0  0
   21.7594   18.8572   22.3481 H   0  0  0  0  0  0  0  0  0  0  0  0
   20.9937   18.2032   24.2720 C   0  0  0  0  0  0  0  0  0  0  0  0
   21.1203   17.1365   24.0438 H   0  0  0  0  0  0  0  0  0  0  0  0
   21.2632   18.3229   25.3298 H   0  0  0  0  0  0  0  0  0  0  0  0
   19.5069   18.5942   24.0755 C   0  0  0  0  0  0  0  0  0  0  0  0
   19.3496   19.6362   24.3840 H   0  0  0  0  0  0  0  0  0  0  0  0
   18.9018   17.9804   24.7553 H   0  0  0  0  0  0  0  0  0  0  0  0
   19.0111   18.3976   22.6200 C   0  0  0  0  0  0  0  0  0  0  0  0
   19.6306   18.9927   21.9362 H   0  0  0  0  0  0  0  0  0  0  0  0
   19.1433   17.3482   22.3224 H   0  0  0  0  0  0  0  0  0  0  0  0
   17.5338   18.8108   22.4112 C   0  0  0  0  0  0  0  0  0  0  0  0
   17.3002   18.7508   21.3389 H   0  0  0  0  0  0  0  0  0  0  0  0
   17.3978   19.8635   22.6960 H   0  0  0  0  0  0  0  0  0  0  0  0
   16.5302   17.9279   23.1875 C   0  0  0  0  0  0  0  0  0  0  0  0
   16.6387   18.0502   24.2722 H   0  0  0  0  0  0  0  0  0  0  0  0
   16.6678   16.8662   22.9450 H   0  0  0  0  0  0  0  0  0  0  0  0
   15.4989   18.1998   22.9277 H   0  0  0  0  0  0  0  0  0  0  0  0
   22.9503   21.2160   22.7742 C   0  0  0  0  0  0  0  0  0  0  0  0
   22.9163   22.2888   22.9768 H   0  0  0  0  0  0  0  0  0  0  0  0
   23.9524   20.8335   22.9801 H   0  0  0  0  0  0  0  0  0  0  0  0
   22.6901   21.0293   21.7300 H   0  0  0  0  0  0  0  0  0  0  0  0
  1  2  1  0  0  0  0
  1  3  1  0  0  0  0
  1  4  1  0  0  0  0
  4  5  1  0  0  0  0
  4  6  1  0  0  0  0
  4  7  1  0  0  0  0
  7  8  1  0  0  0  0
  7  9  1  0  0  0  0
  7 10  1  0  0  0  0
 10 11  1  0  0  0  0
 10 12  1  0  0  0  0
 10 13  1  0  0  0  0
 13 14  1  0  0  0  0
 13 15  1  0  0  0  0
 13 16  1  0  0  0  0
 16 17  1  0  0  0  0
 16 18  1  0  0  0  0
 16 19  1  0  0  0  0
 19 20  1  0  0  0  0
 19 21  1  0  0  0  0
 19 22  1  0  0  0  0
  1 23  1  0  0  0  0
 23 24  1  0  0  0  0
 23 25  1  0  0  0  0
 23 26  1  0  0  0  0
M  END
> <VConfSearch Rank>
753

> <Conf_Id>
126

> <Delta U+W>
1.519

> <U+W>
23.361

> <U>
72.579

> <W>
-49.218

> <W(PB)>
-51.496

> <W(SA)>
2.279

> <Valence>
2.678

> <Coulomb>
69.622

> <VdW>
0.279

> <VdW6>
-7.328

> <VdW12>
7.608

> <Bond>
0.212

> <Angle>
0.911

> <Pdih>
1.555

> <Idih>
0.000

> <Tether>
0.000

$$$$
VeraChem MOL file


 26 25  0  0  0  0  0  0  0  0999 V2000     
   21.2677   20.7988   24.4970 N   0  3  0  0  0  0  0  0  0  0  0  0
   21.5230   19.7999   24.4894 H   0  0  0  0  0  0  0  0  0  0  0  0
   20.9161   20.9879   25.4485 H   0  0  0  0  0  0  0  0  0  0  0  0
   20.1777   21.0622   23.4765 C   0  0  0  0  0  0  0  0  0  0  0  0
   20.5875   20.8550   22.4852 H   0  0  0  0  0  0  0  0  0  0  0  0
   19.9291   22.1254   23.5247 H   0  0  0  0  0  0  0  0  0  0  0  0
   18.8995   20.2271   23.6986 C   0  0  0  0  0  0  0  0  0  0  0  0
   18.4661   20.4879   24.6732 H   0  0  0  0  0  0  0  0  0  0  0  0
   18.1547   20.5177   22.9458 H   0  0  0  0  0  0  0  0  0  0  0  0
   19.1222   18.6948   23.6313 C   0  0  0  0  0  0  0  0  0  0  0  0
   18.1612   18.2031   23.8308 H   0  0  0  0  0  0  0  0  0  0  0  0
   19.7991   18.3789   24.4362 H   0  0  0  0  0  0  0  0  0  0  0  0
   19.6745   18.2174   22.2639 C   0  0  0  0  0  0  0  0  0  0  0  0
   18.9820   18.5096   21.4625 H   0  0  0  0  0  0  0  0  0  0  0  0
   20.6240   18.7264   22.0520 H   0  0  0  0  0  0  0  0  0  0  0  0
   19.9238   16.6909   22.1990 C   0  0  0  0  0  0  0  0  0  0  0  0
   20.6256   16.3942   22.9910 H   0  0  0  0  0  0  0  0  0  0  0  0
   20.4194   16.4557   21.2466 H   0  0  0  0  0  0  0  0  0  0  0  0
   18.6317   15.8492   22.3068 C   0  0  0  0  0  0  0  0  0  0  0  0
   17.8998   16.1495   21.5458 H   0  0  0  0  0  0  0  0  0  0  0  0
   18.1638   15.9511   23.2937 H   0  0  0  0  0  0  0  0  0  0  0  0
   18.8535   14.7847   22.1566 H   0  0  0  0  0  0  0  0  0  0  0  0
   22.4830   21.6636   24.1931 C   0  0  0  0  0  0  0  0  0  0  0  0
   22.8547   21.4226   23.1948 H   0  0  0  0  0  0  0  0  0  0  0  0
   22.1945   22.7161   24.2366 H   0  0  0  0  0  0  0  0  0  0  0  0
   23.2597   21.4631   24.9345 H   0  0  0  0  0  0  0  0  0  0  0  0
  1  2  1  0  0  0  0
  1  3  1  0  0  0  0
  1  4  1  0  0  0  0
  4  5  1  0  0  0  0
  4  6  1  0  0  0  0
  4  7  1  0  0  0  0
  7  8  1  0  0  0  0
  7  9  1  0  0  0  0
  7 10  1  0  0  0  0
 10 11  1  0  0  0  0
 10 12  1  0  0  0  0
 10 13  1  0  0  0  0
 13 14  1  0  0  0  0
 13 15  1  0  0  0  0
 13 16  1  0  0  0  0
 16 17  1  0  0  0  0
 16 18  1  0  0  0  0
 16 19  1  0  0  0  0
 19 20  1  0  0  0  0
 19 21  1  0  0  0  0
 19 22  1  0  0  0  0
  1 23  1  0  0  0  0
 23 24  1  0  0  0  0
 23 25  1  0  0  0  0
 23 26  1  0  0  0  0
M  END
> <VConfSearch Rank>
754

> <Conf_Id>
134

> <Delta U+W>
1.464

> <U+W>
23.306

> <U>
72.579

> <W>
-49.273

> <W(PB)>
-51.540

> <W(SA)>
2.267

> <Valence>
2.677

> <Coulomb>
69.622

> <VdW>
0.280

> <VdW6>
-7.328

> <VdW12>
7.608

> <Bond>
0.212

> <Angle>
0.911

> <Pdih>
1.555

> <Idih>
0.000

> <Tether>
0.000

$$$$
VeraChem MOL file


 26 25  0  0  0  0  0  0  0  0999 V2000     
   20.5494   19.2633   26.0844 N   0  3  0  0  0  0  0  0  0  0  0  0
   21.5438   19.1082   25.8565 H   0  0  0  0  0  0  0  0  0  0  0  0
   20.1941   18.3475   26.4006 H   0  0  0  0  0  0  0  0  0  0  0  0
   19.7950   19.7194   24.8516 C   0  0  0  0  0  0  0  0  0  0  0  0
   20.2054   20.6849   24.5454 H   0  0  0  0  0  0  0  0  0  0  0  0
   18.7489   19.8635   25.1331 H   0  0  0  0  0  0  0  0  0  0  0  0
   19.8839   18.7242   23.6805 C   0  0  0  0  0  0  0  0  0  0  0  0
   20.9389   18.5735   23.4189 H   0  0  0  0  0  0  0  0  0  0  0  0
   19.4853   17.7512   23.9968 H   0  0  0  0  0  0  0  0  0  0  0  0
   19.0990   19.2329   22.4486 C   0  0  0  0  0  0  0  0  0  0  0  0
   19.5216   20.1872   22.1069 H   0  0  0  0  0  0  0  0  0  0  0  0
   18.0652   19.4522   22.7501 H   0  0  0  0  0  0  0  0  0  0  0  0
   19.0606   18.2199   21.2749 C   0  0  0  0  0  0  0  0  0  0  0  0
   18.5333   17.3133   21.6025 H   0  0  0  0  0  0  0  0  0  0  0  0
   18.4525   18.6437   20.4637 H   0  0  0  0  0  0  0  0  0  0  0  0
   20.4436   17.8142   20.7040 C   0  0  0  0  0  0  0  0  0  0  0  0
   20.2870   17.0984   19.8849 H   0  0  0  0  0  0  0  0  0  0  0  0
   21.0256   17.2762   21.4642 H   0  0  0  0  0  0  0  0  0  0  0  0
   21.2633   19.0103   20.1689 C   0  0  0  0  0  0  0  0  0  0  0  0
   20.6938   19.5755   19.4199 H   0  0  0  0  0  0  0  0  0  0  0  0
   22.1886   18.6603   19.6932 H   0  0  0  0  0  0  0  0  0  0  0  0
   21.5469   19.6971   20.9760 H   0  0  0  0  0  0  0  0  0  0  0  0
   20.4105   20.3007   27.1900 C   0  0  0  0  0  0  0  0  0  0  0  0
   19.3536   20.4233   27.4368 H   0  0  0  0  0  0  0  0  0  0  0  0
   20.9581   19.9600   28.0717 H   0  0  0  0  0  0  0  0  0  0  0  0
   20.8227   21.2513   26.8444 H   0  0  0  0  0  0  0  0  0  0  0  0
  1  2  1  0  0  0  0
  1  3  1  0  0  0  0
  1  4  1  0  0  0  0
  4  5  1  0  0  0  0
  4  6  1  0  0  0  0
  4  7  1  0  0  0  0
  7  8  1  0  0  0  0
  7  9  1  0  0  0  0
  7 10  1  0  0  0  0
 10 11  1  0  0  0  0
 10 12  1  0  0  0  0
 10 13  1  0  0  0  0
 13 14  1  0  0  0  0
 13 15  1  0  0  0  0
 13 16  1  0  0  0  0
 16 17  1  0  0  0  0
 16 18  1  0  0  0  0
 16 19  1  0  0  0  0
 19 20  1  0  0  0  0
 19 21  1  0  0  0  0
 19 22  1  0  0  0  0
  1 23  1  0  0  0  0
 23 24  1  0  0  0  0
 23 25  1  0  0  0  0
 23 26  1  0  0  0  0
M  END
> <VConfSearch Rank>
755

> <Conf_Id>
30

> <Delta U+W>
0.910

> <U+W>
22.752

> <U>
71.870

> <W>
-49.118

> <W(PB)>
-51.409

> <W(SA)>
2.290

> <Valence>
2.682

> <Coulomb>
68.933

> <VdW>
0.255

> <VdW6>
-6.833

> <VdW12>
7.088

> <Bond>
0.205

> <Angle>
1.003

> <Pdih>
1.473

> <Idih>
0.000

> <Tether>
0.000

$$$$
VeraChem MOL file


 26 25  0  0  0  0  0  0  0  0999 V2000     
   17.8852   19.4436   25.1362 N   0  3  0  0  0  0  0  0  0  0  0  0
   18.4053   19.7103   25.9867 H   0  0  0  0  0  0  0  0  0  0  0  0
   17.8301   18.4135   25.1597 H   0  0  0  0  0  0  0  0  0  0  0  0
   18.6350   19.8994   23.9006 C   0  0  0  0  0  0  0  0  0  0  0  0
   18.6781   20.9914   23.9184 H   0  0  0  0  0  0  0  0  0  0  0  0
   18.0572   19.5919   23.0253 H   0  0  0  0  0  0  0  0  0  0  0  0
   20.0607   19.3262   23.8074 C   0  0  0  0  0  0  0  0  0  0  0  0
   20.6330   19.6241   24.6959 H   0  0  0  0  0  0  0  0  0  0  0  0
   20.0060   18.2303   23.8087 H   0  0  0  0  0  0  0  0  0  0  0  0
   20.7839   19.8202   22.5324 C   0  0  0  0  0  0  0  0  0  0  0  0
   20.7590   20.9186   22.5113 H   0  0  0  0  0  0  0  0  0  0  0  0
   20.2336   19.4895   21.6414 H   0  0  0  0  0  0  0  0  0  0  0  0
   22.2632   19.3637   22.4412 C   0  0  0  0  0  0  0  0  0  0  0  0
   22.7080   19.7904   21.5317 H   0  0  0  0  0  0  0  0  0  0  0  0
   22.8235   19.7977   23.2809 H   0  0  0  0  0  0  0  0  0  0  0  0
   22.4842   17.8293   22.4339 C   0  0  0  0  0  0  0  0  0  0  0  0
   22.1589   17.3938   23.3882 H   0  0  0  0  0  0  0  0  0  0  0  0
   23.5633   17.6321   22.3673 H   0  0  0  0  0  0  0  0  0  0  0  0
   21.7746   17.1110   21.2636 C   0  0  0  0  0  0  0  0  0  0  0  0
   20.6832   17.1798   21.3515 H   0  0  0  0  0  0  0  0  0  0  0  0
   22.0380   16.0455   21.2498 H   0  0  0  0  0  0  0  0  0  0  0  0
   22.0702   17.5424   20.2984 H   0  0  0  0  0  0  0  0  0  0  0  0
   16.4903   20.0535   25.1501 C   0  0  0  0  0  0  0  0  0  0  0  0
   15.9613   19.7175   26.0448 H   0  0  0  0  0  0  0  0  0  0  0  0
   16.5745   21.1424   25.1585 H   0  0  0  0  0  0  0  0  0  0  0  0
   15.9485   19.7309   24.2583 H   0  0  0  0  0  0  0  0  0  0  0  0
  1  2  1  0  0  0  0
  1  3  1  0  0  0  0
  1  4  1  0  0  0  0
  4  5  1  0  0  0  0
  4  6  1  0  0  0  0
  4  7  1  0  0  0  0
  7  8  1  0  0  0  0
  7  9  1  0  0  0  0
  7 10  1  0  0  0  0
 10 11  1  0  0  0  0
 10 12  1  0  0  0  0
 10 13  1  0  0  0  0
 13 14  1  0  0  0  0
 13 15  1  0  0  0  0
 13 16  1  0  0  0  0
 16 17  1  0  0  0  0
 16 18  1  0  0  0  0
 16 19  1  0  0  0  0
 19 20  1  0  0  0  0
 19 21  1  0  0  0  0
 19 22  1  0  0  0  0
  1 23  1  0  0  0  0
 23 24  1  0  0  0  0
 23 25  1  0  0  0  0
 23 26  1  0  0  0  0
M  END
> <VConfSearch Rank>
756

> <Conf_Id>
29

> <Delta U+W>
0.886

> <U+W>
22.729

> <U>
71.870

> <W>
-49.141

> <W(PB)>
-51.404

> <W(SA)>
2.262

> <Valence>
2.682

> <Coulomb>
68.933

> <VdW>
0.255

> <VdW6>
-6.833

> <VdW12>
7.088

> <Bond>
0.205

> <Angle>
1.003

> <Pdih>
1.473

> <Idih>
0.000

> <Tether>
0.000

$$$$
VeraChem MOL file


 26 25  0  0  0  0  0  0  0  0999 V2000     
   18.9733   21.1155   24.6241 N   0  3  0  0  0  0  0  0  0  0  0  0
   19.6413   21.8431   24.9227 H   0  0  0  0  0  0  0  0  0  0  0  0
   18.9056   20.4618   25.4195 H   0  0  0  0  0  0  0  0  0  0  0  0
   19.4978   20.3958   23.3981 C   0  0  0  0  0  0  0  0  0  0  0  0
   19.5664   21.1231   22.5853 H   0  0  0  0  0  0  0  0  0  0  0  0
   18.7647   19.6351   23.1192 H   0  0  0  0  0  0  0  0  0  0  0  0
   20.8719   19.7358   23.6203 C   0  0  0  0  0  0  0  0  0  0  0  0
   21.5925   20.5024   23.9346 H   0  0  0  0  0  0  0  0  0  0  0  0
   20.8077   19.0161   24.4463 H   0  0  0  0  0  0  0  0  0  0  0  0
   21.4103   19.0350   22.3482 C   0  0  0  0  0  0  0  0  0  0  0  0
   22.3962   18.6030   22.5661 H   0  0  0  0  0  0  0  0  0  0  0  0
   21.5849   19.7933   21.5724 H   0  0  0  0  0  0  0  0  0  0  0  0
   20.4796   17.9368   21.7660 C   0  0  0  0  0  0  0  0  0  0  0  0
   19.5565   18.4007   21.3933 H   0  0  0  0  0  0  0  0  0  0  0  0
   20.9652   17.4976   20.8836 H   0  0  0  0  0  0  0  0  0  0  0  0
   20.1069   16.7985   22.7497 C   0  0  0  0  0  0  0  0  0  0  0  0
   19.4408   16.0934   22.2331 H   0  0  0  0  0  0  0  0  0  0  0  0
   19.5257   17.1986   23.5913 H   0  0  0  0  0  0  0  0  0  0  0  0
   21.3330   16.0237   23.2837 C   0  0  0  0  0  0  0  0  0  0  0  0
   21.0127   15.1781   23.9059 H   0  0  0  0  0  0  0  0  0  0  0  0
   21.9759   16.6632   23.9012 H   0  0  0  0  0  0  0  0  0  0  0  0
   21.9367   15.6237   22.4588 H   0  0  0  0  0  0  0  0  0  0  0  0
   17.6139   21.7304   24.3213 C   0  0  0  0  0  0  0  0  0  0  0  0
   17.2476   22.2459   25.2119 H   0  0  0  0  0  0  0  0  0  0  0  0
   17.7169   22.4423   23.4993 H   0  0  0  0  0  0  0  0  0  0  0  0
   16.9161   20.9386   24.0402 H   0  0  0  0  0  0  0  0  0  0  0  0
  1  2  1  0  0  0  0
  1  3  1  0  0  0  0
  1  4  1  0  0  0  0
  4  5  1  0  0  0  0
  4  6  1  0  0  0  0
  4  7  1  0  0  0  0
  7  8  1  0  0  0  0
  7  9  1  0  0  0  0
  7 10  1  0  0  0  0
 10 11  1  0  0  0  0
 10 12  1  0  0  0  0
 10 13  1  0  0  0  0
 13 14  1  0  0  0  0
 13 15  1  0  0  0  0
 13 16  1  0  0  0  0
 16 17  1  0  0  0  0
 16 18  1  0  0  0  0
 16 19  1  0  0  0  0
 19 20  1  0  0  0  0
 19 21  1  0  0  0  0
 19 22  1  0  0  0  0
  1 23  1  0  0  0  0
 23 24  1  0  0  0  0
 23 25  1  0  0  0  0
 23 26  1  0  0  0  0
M  END
> <VConfSearch Rank>
757

> <Conf_Id>
82

> <Delta U+W>
1.026

> <U+W>
22.868

> <U>
72.455

> <W>
-49.586

> <W(PB)>
-51.821

> <W(SA)>
2.234

> <Valence>
2.908

> <Coulomb>
69.435

> <VdW>
0.112

> <VdW6>
-7.765

> <VdW12>
7.877

> <Bond>
0.233

> <Angle>
1.170

> <Pdih>
1.506

> <Idih>
0.000

> <Tether>
0.000

$$$$
VeraChem MOL file


 26 25  0  0  0  0  0  0  0  0999 V2000     
   21.7601   19.5478   21.3045 N   0  3  0  0  0  0  0  0  0  0  0  0
   22.2878   20.1241   21.9783 H   0  0  0  0  0  0  0  0  0  0  0  0
   21.4278   20.2051   20.5818 H   0  0  0  0  0  0  0  0  0  0  0  0
   20.5821   18.8866   21.9911 C   0  0  0  0  0  0  0  0  0  0  0  0
   20.9773   18.2044   22.7476 H   0  0  0  0  0  0  0  0  0  0  0  0
   20.0443   18.2984   21.2434 H   0  0  0  0  0  0  0  0  0  0  0  0
   19.6187   19.8915   22.6508 C   0  0  0  0  0  0  0  0  0  0  0  0
   20.1613   20.4931   23.3912 H   0  0  0  0  0  0  0  0  0  0  0  0
   19.2552   20.5942   21.8893 H   0  0  0  0  0  0  0  0  0  0  0  0
   18.4019   19.2028   23.3173 C   0  0  0  0  0  0  0  0  0  0  0  0
   17.8034   18.7093   22.5391 H   0  0  0  0  0  0  0  0  0  0  0  0
   17.7474   19.9709   23.7505 H   0  0  0  0  0  0  0  0  0  0  0  0
   18.7616   18.1539   24.4043 C   0  0  0  0  0  0  0  0  0  0  0  0
   17.8298   17.7458   24.8193 H   0  0  0  0  0  0  0  0  0  0  0  0
   19.2724   17.3024   23.9349 H   0  0  0  0  0  0  0  0  0  0  0  0
   19.6371   18.6841   25.5683 C   0  0  0  0  0  0  0  0  0  0  0  0
   20.6189   19.0009   25.1917 H   0  0  0  0  0  0  0  0  0  0  0  0
   19.8351   17.8557   26.2628 H   0  0  0  0  0  0  0  0  0  0  0  0
   18.9796   19.8431   26.3514 C   0  0  0  0  0  0  0  0  0  0  0  0
   18.8605   20.7358   25.7249 H   0  0  0  0  0  0  0  0  0  0  0  0
   19.5980   20.1245   27.2135 H   0  0  0  0  0  0  0  0  0  0  0  0
   17.9903   19.5532   26.7283 H   0  0  0  0  0  0  0  0  0  0  0  0
   22.6617   18.4873   20.6879 C   0  0  0  0  0  0  0  0  0  0  0  0
   22.0909   17.9125   19.9553 H   0  0  0  0  0  0  0  0  0  0  0  0
   23.5057   18.9764   20.1964 H   0  0  0  0  0  0  0  0  0  0  0  0
   23.0271   17.8244   21.4753 H   0  0  0  0  0  0  0  0  0  0  0  0
  1  2  1  0  0  0  0
  1  3  1  0  0  0  0
  1  4  1  0  0  0  0
  4  5  1  0  0  0  0
  4  6  1  0  0  0  0
  4  7  1  0  0  0  0
  7  8  1  0  0  0  0
  7  9  1  0  0  0  0
  7 10  1  0  0  0  0
 10 11  1  0  0  0  0
 10 12  1  0  0  0  0
 10 13  1  0  0  0  0
 13 14  1  0  0  0  0
 13 15  1  0  0  0  0
 13 16  1  0  0  0  0
 16 17  1  0  0  0  0
 16 18  1  0  0  0  0
 16 19  1  0  0  0  0
 19 20  1  0  0  0  0
 19 21  1  0  0  0  0
 19 22  1  0  0  0  0
  1 23  1  0  0  0  0
 23 24  1  0  0  0  0
 23 25  1  0  0  0  0
 23 26  1  0  0  0  0
M  END
> <VConfSearch Rank>
758

> <Conf_Id>
71

> <Delta U+W>
1.096

> <U+W>
22.938

> <U>
72.455

> <W>
-49.517

> <W(PB)>
-51.795

> <W(SA)>
2.278

> <Valence>
2.908

> <Coulomb>
69.435

> <VdW>
0.112

> <VdW6>
-7.766

> <VdW12>
7.877

> <Bond>
0.233

> <Angle>
1.170

> <Pdih>
1.506

> <Idih>
0.000

> <Tether>
0.000

$$$$
VeraChem MOL file


 26 25  0  0  0  0  0  0  0  0999 V2000     
   19.6117   21.3878   22.4323 N   0  3  0  0  0  0  0  0  0  0  0  0
   20.5247   20.9125   22.3759 H   0  0  0  0  0  0  0  0  0  0  0  0
   19.8262   22.3499   22.7392 H   0  0  0  0  0  0  0  0  0  0  0  0
   18.7341   20.7050   23.4693 C   0  0  0  0  0  0  0  0  0  0  0  0
   17.7730   21.2250   23.4847 H   0  0  0  0  0  0  0  0  0  0  0  0
   19.2073   20.8495   24.4435 H   0  0  0  0  0  0  0  0  0  0  0  0
   18.5009   19.1944   23.2397 C   0  0  0  0  0  0  0  0  0  0  0  0
   17.8646   18.8112   24.0484 H   0  0  0  0  0  0  0  0  0  0  0  0
   17.9292   19.0517   22.3136 H   0  0  0  0  0  0  0  0  0  0  0  0
   19.8012   18.3542   23.1717 C   0  0  0  0  0  0  0  0  0  0  0  0
   20.4094   18.6771   22.3163 H   0  0  0  0  0  0  0  0  0  0  0  0
   19.5221   17.3117   22.9713 H   0  0  0  0  0  0  0  0  0  0  0  0
   20.6423   18.4247   24.4719 C   0  0  0  0  0  0  0  0  0  0  0  0
   20.8969   19.4700   24.6902 H   0  0  0  0  0  0  0  0  0  0  0  0
   20.0416   18.0697   25.3207 H   0  0  0  0  0  0  0  0  0  0  0  0
   21.9597   17.6149   24.3979 C   0  0  0  0  0  0  0  0  0  0  0  0
   22.5440   17.8101   25.3081 H   0  0  0  0  0  0  0  0  0  0  0  0
   22.5710   17.9744   23.5583 H   0  0  0  0  0  0  0  0  0  0  0  0
   21.7406   16.0903   24.2665 C   0  0  0  0  0  0  0  0  0  0  0  0
   21.2713   15.8303   23.3098 H   0  0  0  0  0  0  0  0  0  0  0  0
   21.1043   15.7113   25.0768 H   0  0  0  0  0  0  0  0  0  0  0  0
   22.6997   15.5590   24.3173 H   0  0  0  0  0  0  0  0  0  0  0  0
   18.9320   21.4171   21.0683 C   0  0  0  0  0  0  0  0  0  0  0  0
   19.5769   21.9402   20.3587 H   0  0  0  0  0  0  0  0  0  0  0  0
   18.7641   20.3937   20.7268 H   0  0  0  0  0  0  0  0  0  0  0  0
   17.9774   21.9407   21.1546 H   0  0  0  0  0  0  0  0  0  0  0  0
  1  2  1  0  0  0  0
  1  3  1  0  0  0  0
  1  4  1  0  0  0  0
  4  5  1  0  0  0  0
  4  6  1  0  0  0  0
  4  7  1  0  0  0  0
  7  8  1  0  0  0  0
  7  9  1  0  0  0  0
  7 10  1  0  0  0  0
 10 11  1  0  0  0  0
 10 12  1  0  0  0  0
 10 13  1  0  0  0  0
 13 14  1  0  0  0  0
 13 15  1  0  0  0  0
 13 16  1  0  0  0  0
 16 17  1  0  0  0  0
 16 18  1  0  0  0  0
 16 19  1  0  0  0  0
 19 20  1  0  0  0  0
 19 21  1  0  0  0  0
 19 22  1  0  0  0  0
  1 23  1  0  0  0  0
 23 24  1  0  0  0  0
 23 25  1  0  0  0  0
 23 26  1  0  0  0  0
M  END
> <VConfSearch Rank>
759

> <Conf_Id>
84

> <Delta U+W>
1.456

> <U+W>
23.298

> <U>
73.042

> <W>
-49.744

> <W(PB)>
-51.966

> <W(SA)>
2.222

> <Valence>
2.938

> <Coulomb>
69.625

> <VdW>
0.478

> <VdW6>
-8.182

> <VdW12>
8.660

> <Bond>
0.253

> <Angle>
1.038

> <Pdih>
1.647

> <Idih>
0.000

> <Tether>
0.000

$$$$
VeraChem MOL file


 26 25  0  0  0  0  0  0  0  0999 V2000     
   19.8468   19.3588   25.6254 N   0  3  0  0  0  0  0  0  0  0  0  0
   19.0554   19.0860   25.0234 H   0  0  0  0  0  0  0  0  0  0  0  0
   19.5487   20.2253   26.0995 H   0  0  0  0  0  0  0  0  0  0  0  0
   21.0750   19.6247   24.7771 C   0  0  0  0  0  0  0  0  0  0  0  0
   21.3615   18.6864   24.2962 H   0  0  0  0  0  0  0  0  0  0  0  0
   21.8838   19.9220   25.4494 H   0  0  0  0  0  0  0  0  0  0  0  0
   20.8701   20.7176   23.7077 C   0  0  0  0  0  0  0  0  0  0  0  0
   20.6344   21.6678   24.2050 H   0  0  0  0  0  0  0  0  0  0  0  0
   21.8206   20.8762   23.1810 H   0  0  0  0  0  0  0  0  0  0  0  0
   19.7624   20.3909   22.6745 C   0  0  0  0  0  0  0  0  0  0  0  0
   19.6859   21.2293   21.9684 H   0  0  0  0  0  0  0  0  0  0  0  0
   18.7882   20.3277   23.1775 H   0  0  0  0  0  0  0  0  0  0  0  0
   20.0299   19.0864   21.8855 C   0  0  0  0  0  0  0  0  0  0  0  0
   21.0157   19.1446   21.4036 H   0  0  0  0  0  0  0  0  0  0  0  0
   20.0621   18.2304   22.5727 H   0  0  0  0  0  0  0  0  0  0  0  0
   18.9477   18.8324   20.8124 C   0  0  0  0  0  0  0  0  0  0  0  0
   18.9133   19.6785   20.1119 H   0  0  0  0  0  0  0  0  0  0  0  0
   17.9588   18.7751   21.2885 H   0  0  0  0  0  0  0  0  0  0  0  0
   19.2142   17.5297   20.0282 C   0  0  0  0  0  0  0  0  0  0  0  0
   20.1826   17.5703   19.5126 H   0  0  0  0  0  0  0  0  0  0  0  0
   18.4363   17.3670   19.2710 H   0  0  0  0  0  0  0  0  0  0  0  0
   19.2196   16.6596   20.6976 H   0  0  0  0  0  0  0  0  0  0  0  0
   20.1456   18.2668   26.6430 C   0  0  0  0  0  0  0  0  0  0  0  0
   20.9659   18.5911   27.2870 H   0  0  0  0  0  0  0  0  0  0  0  0
   19.2531   18.0850   27.2458 H   0  0  0  0  0  0  0  0  0  0  0  0
   20.4277   17.3525   26.1163 H   0  0  0  0  0  0  0  0  0  0  0  0
  1  2  1  0  0  0  0
  1  3  1  0  0  0  0
  1  4  1  0  0  0  0
  4  5  1  0  0  0  0
  4  6  1  0  0  0  0
  4  7  1  0  0  0  0
  7  8  1  0  0  0  0
  7  9  1  0  0  0  0
  7 10  1  0  0  0  0
 10 11  1  0  0  0  0
 10 12  1  0  0  0  0
 10 13  1  0  0  0  0
 13 14  1  0  0  0  0
 13 15  1  0  0  0  0
 13 16  1  0  0  0  0
 16 17  1  0  0  0  0
 16 18  1  0  0  0  0
 16 19  1  0  0  0  0
 19 20  1  0  0  0  0
 19 21  1  0  0  0  0
 19 22  1  0  0  0  0
  1 23  1  0  0  0  0
 23 24  1  0  0  0  0
 23 25  1  0  0  0  0
 23 26  1  0  0  0  0
M  END
> <VConfSearch Rank>
760

> <Conf_Id>
73

> <Delta U+W>
0.884

> <U+W>
22.726

> <U>
71.905

> <W>
-49.179

> <W(PB)>
-51.494

> <W(SA)>
2.315

> <Valence>
2.125

> <Coulomb>
69.686

> <VdW>
0.093

> <VdW6>
-6.766

> <VdW12>
6.859

> <Bond>
0.169

> <Angle>
0.621

> <Pdih>
1.336

> <Idih>
0.000

> <Tether>
0.000

$$$$
VeraChem MOL file


 26 25  0  0  0  0  0  0  0  0999 V2000     
   22.8967   17.5809   23.6236 N   0  3  0  0  0  0  0  0  0  0  0  0
   22.8732   17.1046   22.7085 H   0  0  0  0  0  0  0  0  0  0  0  0
   22.5655   16.8811   24.3059 H   0  0  0  0  0  0  0  0  0  0  0  0
   21.9700   18.7801   23.6129 C   0  0  0  0  0  0  0  0  0  0  0  0
   22.3498   19.4907   22.8743 H   0  0  0  0  0  0  0  0  0  0  0  0
   22.0177   19.2495   24.5987 H   0  0  0  0  0  0  0  0  0  0  0  0
   20.5107   18.4188   23.2813 C   0  0  0  0  0  0  0  0  0  0  0  0
   20.4695   17.9326   22.2975 H   0  0  0  0  0  0  0  0  0  0  0  0
   20.1386   17.6923   24.0160 H   0  0  0  0  0  0  0  0  0  0  0  0
   19.6045   19.6699   23.2818 C   0  0  0  0  0  0  0  0  0  0  0  0
   19.9832   20.3966   22.5494 H   0  0  0  0  0  0  0  0  0  0  0  0
   19.6529   20.1567   24.2660 H   0  0  0  0  0  0  0  0  0  0  0  0
   18.1361   19.3191   22.9502 C   0  0  0  0  0  0  0  0  0  0  0  0
   18.0875   18.8326   21.9661 H   0  0  0  0  0  0  0  0  0  0  0  0
   17.7572   18.5927   23.6825 H   0  0  0  0  0  0  0  0  0  0  0  0
   17.2300   20.5707   22.9508 C   0  0  0  0  0  0  0  0  0  0  0  0
   17.6035   21.2997   22.2179 H   0  0  0  0  0  0  0  0  0  0  0  0
   17.2732   21.0598   23.9341 H   0  0  0  0  0  0  0  0  0  0  0  0
   15.7646   20.2165   22.6192 C   0  0  0  0  0  0  0  0  0  0  0  0
   15.1373   21.1174   22.6244 H   0  0  0  0  0  0  0  0  0  0  0  0
   15.3516   19.5146   23.3554 H   0  0  0  0  0  0  0  0  0  0  0  0
   15.6845   19.7563   21.6258 H   0  0  0  0  0  0  0  0  0  0  0  0
   24.3141   18.0244   23.9586 C   0  0  0  0  0  0  0  0  0  0  0  0
   24.3196   18.4951   24.9442 H   0  0  0  0  0  0  0  0  0  0  0  0
   24.9709   17.1516   23.9630 H   0  0  0  0  0  0  0  0  0  0  0  0
   24.6545   18.7384   23.2055 H   0  0  0  0  0  0  0  0  0  0  0  0
  1  2  1  0  0  0  0
  1  3  1  0  0  0  0
  1  4  1  0  0  0  0
  4  5  1  0  0  0  0
  4  6  1  0  0  0  0
  4  7  1  0  0  0  0
  7  8  1  0  0  0  0
  7  9  1  0  0  0  0
  7 10  1  0  0  0  0
 10 11  1  0  0  0  0
 10 12  1  0  0  0  0
 10 13  1  0  0  0  0
 13 14  1  0  0  0  0
 13 15  1  0  0  0  0
 13 16  1  0  0  0  0
 16 17  1  0  0  0  0
 16 18  1  0  0  0  0
 16 19  1  0  0  0  0
 19 20  1  0  0  0  0
 19 21  1  0  0  0  0
 19 22  1  0  0  0  0
  1 23  1  0  0  0  0
 23 24  1  0  0  0  0
 23 25  1  0  0  0  0
 23 26  1  0  0  0  0
M  END
> <VConfSearch Rank>
761

> <Conf_Id>
11

> <Delta U+W>
0.000

> <U+W>
21.842

> <U>
70.357

> <W>
-48.515

> <W(PB)>
-50.856

> <W(SA)>
2.341

> <Valence>
1.714

> <Coulomb>
68.480

> <VdW>
0.163

> <VdW6>
-5.268

> <VdW12>
5.431

> <Bond>
0.126

> <Angle>
0.350

> <Pdih>
1.238

> <Idih>
0.000

> <Tether>
0.000

$$$$
VeraChem MOL file


 26 25  0  0  0  0  0  0  0  0999 V2000     
   16.7009   19.6234   23.7273 N   0  3  0  0  0  0  0  0  0  0  0  0
   16.0646   19.8875   24.4963 H   0  0  0  0  0  0  0  0  0  0  0  0
   16.4174   18.6669   23.4642 H   0  0  0  0  0  0  0  0  0  0  0  0
   18.1348   19.6269   24.2302 C   0  0  0  0  0  0  0  0  0  0  0  0
   18.1532   19.0561   25.1622 H   0  0  0  0  0  0  0  0  0  0  0  0
   18.4085   20.6597   24.4599 H   0  0  0  0  0  0  0  0  0  0  0  0
   19.1586   19.0186   23.2502 C   0  0  0  0  0  0  0  0  0  0  0  0
   18.8486   17.9987   22.9865 H   0  0  0  0  0  0  0  0  0  0  0  0
   19.1737   19.6013   22.3201 H   0  0  0  0  0  0  0  0  0  0  0  0
   20.5765   18.9893   23.8627 C   0  0  0  0  0  0  0  0  0  0  0  0
   20.5608   18.4076   24.7949 H   0  0  0  0  0  0  0  0  0  0  0  0
   20.8802   20.0109   24.1310 H   0  0  0  0  0  0  0  0  0  0  0  0
   21.6126   18.3803   22.8906 C   0  0  0  0  0  0  0  0  0  0  0  0
   21.3089   17.3590   22.6221 H   0  0  0  0  0  0  0  0  0  0  0  0
   21.6287   18.9621   21.9585 H   0  0  0  0  0  0  0  0  0  0  0  0
   23.0306   18.3512   23.5036 C   0  0  0  0  0  0  0  0  0  0  0  0
   23.0205   17.7681   24.4352 H   0  0  0  0  0  0  0  0  0  0  0  0
   23.3401   19.3711   23.7718 H   0  0  0  0  0  0  0  0  0  0  0  0
   24.0625   17.7426   22.5301 C   0  0  0  0  0  0  0  0  0  0  0  0
   25.0625   17.7305   22.9829 H   0  0  0  0  0  0  0  0  0  0  0  0
   24.1206   18.3248   21.6012 H   0  0  0  0  0  0  0  0  0  0  0  0
   23.7984   16.7092   22.2699 H   0  0  0  0  0  0  0  0  0  0  0  0
   16.5234   20.5833   22.5562 C   0  0  0  0  0  0  0  0  0  0  0  0
   17.1514   20.2589   21.7240 H   0  0  0  0  0  0  0  0  0  0  0  0
   15.4756   20.5806   22.2478 H   0  0  0  0  0  0  0  0  0  0  0  0
   16.8128   21.5888   22.8694 H   0  0  0  0  0  0  0  0  0  0  0  0
  1  2  1  0  0  0  0
  1  3  1  0  0  0  0
  1  4  1  0  0  0  0
  4  5  1  0  0  0  0
  4  6  1  0  0  0  0
  4  7  1  0  0  0  0
  7  8  1  0  0  0  0
  7  9  1  0  0  0  0
  7 10  1  0  0  0  0
 10 11  1  0  0  0  0
 10 12  1  0  0  0  0
 10 13  1  0  0  0  0
 13 14  1  0  0  0  0
 13 15  1  0  0  0  0
 13 16  1  0  0  0  0
 16 17  1  0  0  0  0
 16 18  1  0  0  0  0
 16 19  1  0  0  0  0
 19 20  1  0  0  0  0
 19 21  1  0  0  0  0
 19 22  1  0  0  0  0
  1 23  1  0  0  0  0
 23 24  1  0  0  0  0
 23 25  1  0  0  0  0
 23 26  1  0  0  0  0
M  END
> <VConfSearch Rank>
762

> <Conf_Id>
102

> <Delta U+W>
0.121

> <U+W>
21.963

> <U>
70.745

> <W>
-48.782

> <W(PB)>
-51.111

> <W(SA)>
2.329

> <Valence>
1.993

> <Coulomb>
68.323

> <VdW>
0.429

> <VdW6>
-5.973

> <VdW12>
6.402

> <Bond>
0.161

> <Angle>
0.472

> <Pdih>
1.360

> <Idih>
0.000

> <Tether>
0.000

$$$$
VeraChem MOL file


 26 25  0  0  0  0  0  0  0  0999 V2000     
   18.4466   16.1326   23.6077 N   0  3  0  0  0  0  0  0  0  0  0  0
   19.2944   15.5870   23.8268 H   0  0  0  0  0  0  0  0  0  0  0  0
   17.8668   15.5030   23.0302 H   0  0  0  0  0  0  0  0  0  0  0  0
   18.8108   17.3689   22.8027 C   0  0  0  0  0  0  0  0  0  0  0  0
   17.8943   17.9375   22.6258 H   0  0  0  0  0  0  0  0  0  0  0  0
   19.1893   17.0268   21.8361 H   0  0  0  0  0  0  0  0  0  0  0  0
   19.8704   18.2741   23.4635 C   0  0  0  0  0  0  0  0  0  0  0  0
   19.4911   18.6508   24.4221 H   0  0  0  0  0  0  0  0  0  0  0  0
   20.7691   17.6824   23.6826 H   0  0  0  0  0  0  0  0  0  0  0  0
   20.2412   19.4652   22.5524 C   0  0  0  0  0  0  0  0  0  0  0  0
   19.3382   20.0509   22.3303 H   0  0  0  0  0  0  0  0  0  0  0  0
   20.6192   19.0879   21.5919 H   0  0  0  0  0  0  0  0  0  0  0  0
   21.3038   20.3803   23.2027 C   0  0  0  0  0  0  0  0  0  0  0  0
   20.9259   20.7579   24.1629 H   0  0  0  0  0  0  0  0  0  0  0  0
   22.2067   19.7947   23.4252 H   0  0  0  0  0  0  0  0  0  0  0  0
   21.6746   21.5715   22.2912 C   0  0  0  0  0  0  0  0  0  0  0  0
   20.7749   22.1619   22.0676 H   0  0  0  0  0  0  0  0  0  0  0  0
   22.0558   21.1989   21.3301 H   0  0  0  0  0  0  0  0  0  0  0  0
   22.7357   22.4830   22.9439 C   0  0  0  0  0  0  0  0  0  0  0  0
   22.3698   22.8991   23.8917 H   0  0  0  0  0  0  0  0  0  0  0  0
   22.9858   23.3224   22.2821 H   0  0  0  0  0  0  0  0  0  0  0  0
   23.6608   21.9285   23.1486 H   0  0  0  0  0  0  0  0  0  0  0  0
   17.6960   16.5037   24.8817 C   0  0  0  0  0  0  0  0  0  0  0  0
   16.7958   17.0630   24.6177 H   0  0  0  0  0  0  0  0  0  0  0  0
   17.4198   15.5899   25.4125 H   0  0  0  0  0  0  0  0  0  0  0  0
   18.3402   17.1158   25.5161 H   0  0  0  0  0  0  0  0  0  0  0  0
  1  2  1  0  0  0  0
  1  3  1  0  0  0  0
  1  4  1  0  0  0  0
  4  5  1  0  0  0  0
  4  6  1  0  0  0  0
  4  7  1  0  0  0  0
  7  8  1  0  0  0  0
  7  9  1  0  0  0  0
  7 10  1  0  0  0  0
 10 11  1  0  0  0  0
 10 12  1  0  0  0  0
 10 13  1  0  0  0  0
 13 14  1  0  0  0  0
 13 15  1  0  0  0  0
 13 16  1  0  0  0  0
 16 17  1  0  0  0  0
 16 18  1  0  0  0  0
 16 19  1  0  0  0  0
 19 20  1  0  0  0  0
 19 21  1  0  0  0  0
 19 22  1  0  0  0  0
  1 23  1  0  0  0  0
 23 24  1  0  0  0  0
 23 25  1  0  0  0  0
 23 26  1  0  0  0  0
M  END
> <VConfSearch Rank>
763

> <Conf_Id>
37

> <Delta U+W>
0.125

> <U+W>
21.967

> <U>
70.745

> <W>
-48.778

> <W(PB)>
-51.115

> <W(SA)>
2.337

> <Valence>
1.993

> <Coulomb>
68.323

> <VdW>
0.429

> <VdW6>
-5.973

> <VdW12>
6.403

> <Bond>
0.161

> <Angle>
0.472

> <Pdih>
1.360

> <Idih>
0.000

> <Tether>
0.000

$$$$
VeraChem MOL file


 26 25  0  0  0  0  0  0  0  0999 V2000     
   17.2664   17.9403   22.7905 N   0  3  0  0  0  0  0  0  0  0  0  0
   17.2979   16.9089   22.7838 H   0  0  0  0  0  0  0  0  0  0  0  0
   17.1932   18.2191   21.7997 H   0  0  0  0  0  0  0  0  0  0  0  0
   18.5375   18.4985   23.3982 C   0  0  0  0  0  0  0  0  0  0  0  0
   18.5820   18.1727   24.4405 H   0  0  0  0  0  0  0  0  0  0  0  0
   18.4635   19.5883   23.3803 H   0  0  0  0  0  0  0  0  0  0  0  0
   19.8133   18.0490   22.6600 C   0  0  0  0  0  0  0  0  0  0  0  0
   19.8498   16.9516   22.6449 H   0  0  0  0  0  0  0  0  0  0  0  0
   19.7694   18.3764   21.6127 H   0  0  0  0  0  0  0  0  0  0  0  0
   21.1072   18.5840   23.3183 C   0  0  0  0  0  0  0  0  0  0  0  0
   21.9657   18.1311   22.8056 H   0  0  0  0  0  0  0  0  0  0  0  0
   21.1540   18.2454   24.3626 H   0  0  0  0  0  0  0  0  0  0  0  0
   21.2241   20.1288   23.2630 C   0  0  0  0  0  0  0  0  0  0  0  0
   21.1979   20.4652   22.2173 H   0  0  0  0  0  0  0  0  0  0  0  0
   20.3530   20.5812   23.7548 H   0  0  0  0  0  0  0  0  0  0  0  0
   22.5003   20.6750   23.9485 C   0  0  0  0  0  0  0  0  0  0  0  0
   22.5263   20.3510   24.9983 H   0  0  0  0  0  0  0  0  0  0  0  0
   22.4469   21.7726   23.9676 H   0  0  0  0  0  0  0  0  0  0  0  0
   23.8091   20.2543   23.2415 C   0  0  0  0  0  0  0  0  0  0  0  0
   23.9735   19.1717   23.3060 H   0  0  0  0  0  0  0  0  0  0  0  0
   24.6724   20.7462   23.7079 H   0  0  0  0  0  0  0  0  0  0  0  0
   23.7943   20.5381   22.1812 H   0  0  0  0  0  0  0  0  0  0  0  0
   16.0578   18.4326   23.5746 C   0  0  0  0  0  0  0  0  0  0  0  0
   16.0271   19.5239   23.5395 H   0  0  0  0  0  0  0  0  0  0  0  0
   15.1494   18.0234   23.1268 H   0  0  0  0  0  0  0  0  0  0  0  0
   16.1413   18.0978   24.6109 H   0  0  0  0  0  0  0  0  0  0  0  0
  1  2  1  0  0  0  0
  1  3  1  0  0  0  0
  1  4  1  0  0  0  0
  4  5  1  0  0  0  0
  4  6  1  0  0  0  0
  4  7  1  0  0  0  0
  7  8  1  0  0  0  0
  7  9  1  0  0  0  0
  7 10  1  0  0  0  0
 10 11  1  0  0  0  0
 10 12  1  0  0  0  0
 10 13  1  0  0  0  0
 13 14  1  0  0  0  0
 13 15  1  0  0  0  0
 13 16  1  0  0  0  0
 16 17  1  0  0  0  0
 16 18  1  0  0  0  0
 16 19  1  0  0  0  0
 19 20  1  0  0  0  0
 19 21  1  0  0  0  0
 19 22  1  0  0  0  0
  1 23  1  0  0  0  0
 23 24  1  0  0  0  0
 23 25  1  0  0  0  0
 23 26  1  0  0  0  0
M  END
> <VConfSearch Rank>
764

> <Conf_Id>
137

> <Delta U+W>
1.038

> <U+W>
22.880

> <U>
71.810

> <W>
-48.930

> <W(PB)>
-51.257

> <W(SA)>
2.327

> <Valence>
2.568

> <Coulomb>
68.877

> <VdW>
0.364

> <VdW6>
-6.470

> <VdW12>
6.834

> <Bond>
0.191

> <Angle>
0.752

> <Pdih>
1.626

> <Idih>
0.000

> <Tether>
0.000

$$$$
VeraChem MOL file


 26 25  0  0  0  0  0  0  0  0999 V2000     
   18.6908   21.6783   23.0146 N   0  3  0  0  0  0  0  0  0  0  0  0
   17.8814   21.1490   22.6547 H   0  0  0  0  0  0  0  0  0  0  0  0
   19.2183   21.9753   22.1789 H   0  0  0  0  0  0  0  0  0  0  0  0
   19.5521   20.7875   23.8873 C   0  0  0  0  0  0  0  0  0  0  0  0
   18.9562   20.4894   24.7536 H   0  0  0  0  0  0  0  0  0  0  0  0
   20.3989   21.3818   24.2400 H   0  0  0  0  0  0  0  0  0  0  0  0
   20.0674   19.5340   23.1572 C   0  0  0  0  0  0  0  0  0  0  0  0
   19.2093   18.9559   22.7918 H   0  0  0  0  0  0  0  0  0  0  0  0
   20.6518   19.8381   22.2787 H   0  0  0  0  0  0  0  0  0  0  0  0
   20.9417   18.6604   24.0876 C   0  0  0  0  0  0  0  0  0  0  0  0
   20.3432   18.3151   24.9421 H   0  0  0  0  0  0  0  0  0  0  0  0
   21.7465   19.2806   24.5063 H   0  0  0  0  0  0  0  0  0  0  0  0
   21.5807   17.4425   23.3755 C   0  0  0  0  0  0  0  0  0  0  0  0
   22.1935   17.7887   22.5317 H   0  0  0  0  0  0  0  0  0  0  0  0
   22.2710   16.9527   24.0762 H   0  0  0  0  0  0  0  0  0  0  0  0
   20.5482   16.4028   22.8784 C   0  0  0  0  0  0  0  0  0  0  0  0
   19.8958   16.8497   22.1166 H   0  0  0  0  0  0  0  0  0  0  0  0
   19.9010   16.0946   23.7114 H   0  0  0  0  0  0  0  0  0  0  0  0
   21.2370   15.1581   22.2789 C   0  0  0  0  0  0  0  0  0  0  0  0
   21.8690   15.4303   21.4235 H   0  0  0  0  0  0  0  0  0  0  0  0
   20.4909   14.4329   21.9290 H   0  0  0  0  0  0  0  0  0  0  0  0
   21.8682   14.6577   23.0248 H   0  0  0  0  0  0  0  0  0  0  0  0
   18.2254   22.8896   23.8107 C   0  0  0  0  0  0  0  0  0  0  0  0
   19.0975   23.4515   24.1525 H   0  0  0  0  0  0  0  0  0  0  0  0
   17.6064   23.5225   23.1709 H   0  0  0  0  0  0  0  0  0  0  0  0
   17.6424   22.5520   24.6704 H   0  0  0  0  0  0  0  0  0  0  0  0
  1  2  1  0  0  0  0
  1  3  1  0  0  0  0
  1  4  1  0  0  0  0
  4  5  1  0  0  0  0
  4  6  1  0  0  0  0
  4  7  1  0  0  0  0
  7  8  1  0  0  0  0
  7  9  1  0  0  0  0
  7 10  1  0  0  0  0
 10 11  1  0  0  0  0
 10 12  1  0  0  0  0
 10 13  1  0  0  0  0
 13 14  1  0  0  0  0
 13 15  1  0  0  0  0
 13 16  1  0  0  0  0
 16 17  1  0  0  0  0
 16 18  1  0  0  0  0
 16 19  1  0  0  0  0
 19 20  1  0  0  0  0
 19 21  1  0  0  0  0
 19 22  1  0  0  0  0
  1 23  1  0  0  0  0
 23 24  1  0  0  0  0
 23 25  1  0  0  0  0
 23 26  1  0  0  0  0
M  END
> <VConfSearch Rank>
765

> <Conf_Id>
35

> <Delta U+W>
0.670

> <U+W>
22.512

> <U>
71.348

> <W>
-48.837

> <W(PB)>
-51.150

> <W(SA)>
2.313

> <Valence>
2.262

> <Coulomb>
68.807

> <VdW>
0.280

> <VdW6>
-5.915

> <VdW12>
6.195

> <Bond>
0.164

> <Angle>
0.622

> <Pdih>
1.475

> <Idih>
0.000

> <Tether>
0.000

$$$$
VeraChem MOL file


 26 25  0  0  0  0  0  0  0  0999 V2000     
   19.1848   18.0969   25.9774 N   0  3  0  0  0  0  0  0  0  0  0  0
   18.2690   17.7376   25.6657 H   0  0  0  0  0  0  0  0  0  0  0  0
   19.0228   19.0862   26.2221 H   0  0  0  0  0  0  0  0  0  0  0  0
   20.1966   17.9947   24.8538 C   0  0  0  0  0  0  0  0  0  0  0  0
   20.3327   16.9356   24.6207 H   0  0  0  0  0  0  0  0  0  0  0  0
   21.1466   18.3913   25.2208 H   0  0  0  0  0  0  0  0  0  0  0  0
   19.7745   18.7547   23.5831 C   0  0  0  0  0  0  0  0  0  0  0  0
   18.8119   18.3638   23.2274 H   0  0  0  0  0  0  0  0  0  0  0  0
   19.6228   19.8120   23.8337 H   0  0  0  0  0  0  0  0  0  0  0  0
   20.8368   18.6181   22.4668 C   0  0  0  0  0  0  0  0  0  0  0  0
   21.0328   17.5513   22.2899 H   0  0  0  0  0  0  0  0  0  0  0  0
   21.7875   19.0536   22.8046 H   0  0  0  0  0  0  0  0  0  0  0  0
   20.4151   19.2685   21.1260 C   0  0  0  0  0  0  0  0  0  0  0  0
   21.1707   19.0223   20.3671 H   0  0  0  0  0  0  0  0  0  0  0  0
   19.4737   18.8206   20.7790 H   0  0  0  0  0  0  0  0  0  0  0  0
   20.2638   20.8065   21.2033 C   0  0  0  0  0  0  0  0  0  0  0  0
   21.1875   21.2511   21.5995 H   0  0  0  0  0  0  0  0  0  0  0  0
   19.4576   21.0742   21.8991 H   0  0  0  0  0  0  0  0  0  0  0  0
   19.9543   21.4184   19.8203 C   0  0  0  0  0  0  0  0  0  0  0  0
   20.7600   21.2070   19.1051 H   0  0  0  0  0  0  0  0  0  0  0  0
   19.8473   22.5084   19.8937 H   0  0  0  0  0  0  0  0  0  0  0  0
   19.0191   21.0150   19.4106 H   0  0  0  0  0  0  0  0  0  0  0  0
   19.6779   17.3206   27.1907 C   0  0  0  0  0  0  0  0  0  0  0  0
   20.6306   17.7395   27.5222 H   0  0  0  0  0  0  0  0  0  0  0  0
   18.9403   17.4022   27.9923 H   0  0  0  0  0  0  0  0  0  0  0  0
   19.8101   16.2717   26.9166 H   0  0  0  0  0  0  0  0  0  0  0  0
  1  2  1  0  0  0  0
  1  3  1  0  0  0  0
  1  4  1  0  0  0  0
  4  5  1  0  0  0  0
  4  6  1  0  0  0  0
  4  7  1  0  0  0  0
  7  8  1  0  0  0  0
  7  9  1  0  0  0  0
  7 10  1  0  0  0  0
 10 11  1  0  0  0  0
 10 12  1  0  0  0  0
 10 13  1  0  0  0  0
 13 14  1  0  0  0  0
 13 15  1  0  0  0  0
 13 16  1  0  0  0  0
 16 17  1  0  0  0  0
 16 18  1  0  0  0  0
 16 19  1  0  0  0  0
 19 20  1  0  0  0  0
 19 21  1  0  0  0  0
 19 22  1  0  0  0  0
  1 23  1  0  0  0  0
 23 24  1  0  0  0  0
 23 25  1  0  0  0  0
 23 26  1  0  0  0  0
M  END
> <VConfSearch Rank>
766

> <Conf_Id>
36

> <Delta U+W>
0.662

> <U+W>
22.504

> <U>
71.348

> <W>
-48.844

> <W(PB)>
-51.157

> <W(SA)>
2.313

> <Valence>
2.262

> <Coulomb>
68.807

> <VdW>
0.280

> <VdW6>
-5.916

> <VdW12>
6.195

> <Bond>
0.164

> <Angle>
0.622

> <Pdih>
1.475

> <Idih>
0.000

> <Tether>
0.000

$$$$
VeraChem MOL file


 26 25  0  0  0  0  0  0  0  0999 V2000     
   19.6960   22.0895   23.2068 N   0  3  0  0  0  0  0  0  0  0  0  0
   20.6924   22.3577   23.1973 H   0  0  0  0  0  0  0  0  0  0  0  0
   19.3023   22.5263   24.0547 H   0  0  0  0  0  0  0  0  0  0  0  0
   19.5607   20.5822   23.2840 C   0  0  0  0  0  0  0  0  0  0  0  0
   19.9930   20.1623   22.3727 H   0  0  0  0  0  0  0  0  0  0  0  0
   18.4948   20.3416   23.3028 H   0  0  0  0  0  0  0  0  0  0  0  0
   20.2515   19.9714   24.5186 C   0  0  0  0  0  0  0  0  0  0  0  0
   21.3222   20.2145   24.5007 H   0  0  0  0  0  0  0  0  0  0  0  0
   19.8393   20.4333   25.4256 H   0  0  0  0  0  0  0  0  0  0  0  0
   20.0680   18.4379   24.6085 C   0  0  0  0  0  0  0  0  0  0  0  0
   18.9963   18.1993   24.6540 H   0  0  0  0  0  0  0  0  0  0  0  0
   20.5046   18.0858   25.5534 H   0  0  0  0  0  0  0  0  0  0  0  0
   20.7230   17.6769   23.4305 C   0  0  0  0  0  0  0  0  0  0  0  0
   20.2614   17.9832   22.4822 H   0  0  0  0  0  0  0  0  0  0  0  0
   21.7871   17.9436   23.3672 H   0  0  0  0  0  0  0  0  0  0  0  0
   20.5857   16.1461   23.5887 C   0  0  0  0  0  0  0  0  0  0  0  0
   19.5229   15.8736   23.6534 H   0  0  0  0  0  0  0  0  0  0  0  0
   21.0523   15.8267   24.5312 H   0  0  0  0  0  0  0  0  0  0  0  0
   21.2378   15.3882   22.4126 C   0  0  0  0  0  0  0  0  0  0  0  0
   20.7683   15.6604   21.4583 H   0  0  0  0  0  0  0  0  0  0  0  0
   21.1306   14.3036   22.5432 H   0  0  0  0  0  0  0  0  0  0  0  0
   22.3098   15.6145   22.3429 H   0  0  0  0  0  0  0  0  0  0  0  0
   18.9911   22.6096   21.9616 C   0  0  0  0  0  0  0  0  0  0  0  0
   17.9331   22.3428   22.0100 H   0  0  0  0  0  0  0  0  0  0  0  0
   19.0959   23.6960   21.9182 H   0  0  0  0  0  0  0  0  0  0  0  0
   19.4464   22.1595   21.0767 H   0  0  0  0  0  0  0  0  0  0  0  0
  1  2  1  0  0  0  0
  1  3  1  0  0  0  0
  1  4  1  0  0  0  0
  4  5  1  0  0  0  0
  4  6  1  0  0  0  0
  4  7  1  0  0  0  0
  7  8  1  0  0  0  0
  7  9  1  0  0  0  0
  7 10  1  0  0  0  0
 10 11  1  0  0  0  0
 10 12  1  0  0  0  0
 10 13  1  0  0  0  0
 13 14  1  0  0  0  0
 13 15  1  0  0  0  0
 13 16  1  0  0  0  0
 16 17  1  0  0  0  0
 16 18  1  0  0  0  0
 16 19  1  0  0  0  0
 19 20  1  0  0  0  0
 19 21  1  0  0  0  0
 19 22  1  0  0  0  0
  1 23  1  0  0  0  0
 23 24  1  0  0  0  0
 23 25  1  0  0  0  0
 23 26  1  0  0  0  0
M  END
> <VConfSearch Rank>
767

> <Conf_Id>
46

> <Delta U+W>
0.496

> <U+W>
22.338

> <U>
71.138

> <W>
-48.799

> <W(PB)>
-51.136

> <W(SA)>
2.337

> <Valence>
2.016

> <Coulomb>
68.932

> <VdW>
0.190

> <VdW6>
-5.902

> <VdW12>
6.092

> <Bond>
0.149

> <Angle>
0.477

> <Pdih>
1.390

> <Idih>
0.000

> <Tether>
0.000

$$$$
VeraChem MOL file


 26 25  0  0  0  0  0  0  0  0999 V2000     
   19.6851   16.9824   25.4353 N   0  3  0  0  0  0  0  0  0  0  0  0
   18.7658   16.5221   25.5237 H   0  0  0  0  0  0  0  0  0  0  0  0
   19.7480   17.6263   26.2393 H   0  0  0  0  0  0  0  0  0  0  0  0
   19.7584   17.7591   24.1362 C   0  0  0  0  0  0  0  0  0  0  0  0
   19.6776   17.0446   23.3132 H   0  0  0  0  0  0  0  0  0  0  0  0
   20.7419   18.2324   24.0867 H   0  0  0  0  0  0  0  0  0  0  0  0
   18.6574   18.8289   24.0035 C   0  0  0  0  0  0  0  0  0  0  0  0
   17.6753   18.3469   24.0989 H   0  0  0  0  0  0  0  0  0  0  0  0
   18.7374   19.5459   24.8314 H   0  0  0  0  0  0  0  0  0  0  0  0
   18.7170   19.5837   22.6545 C   0  0  0  0  0  0  0  0  0  0  0  0
   17.8543   20.2615   22.5917 H   0  0  0  0  0  0  0  0  0  0  0  0
   18.6091   18.8669   21.8285 H   0  0  0  0  0  0  0  0  0  0  0  0
   20.0195   20.3997   22.4711 C   0  0  0  0  0  0  0  0  0  0  0  0
   20.1413   21.0919   23.3158 H   0  0  0  0  0  0  0  0  0  0  0  0
   20.8884   19.7280   22.4823 H   0  0  0  0  0  0  0  0  0  0  0  0
   20.0150   21.1988   21.1487 C   0  0  0  0  0  0  0  0  0  0  0  0
   19.1537   21.8813   21.1300 H   0  0  0  0  0  0  0  0  0  0  0  0
   19.8925   20.5112   20.3001 H   0  0  0  0  0  0  0  0  0  0  0  0
   21.3151   22.0108   20.9661 C   0  0  0  0  0  0  0  0  0  0  0  0
   21.4483   22.7320   21.7830 H   0  0  0  0  0  0  0  0  0  0  0  0
   21.2927   22.5713   20.0226 H   0  0  0  0  0  0  0  0  0  0  0  0
   22.1928   21.3518   20.9454 H   0  0  0  0  0  0  0  0  0  0  0  0
   20.8052   15.9526   25.4869 C   0  0  0  0  0  0  0  0  0  0  0  0
   20.7409   15.4003   26.4271 H   0  0  0  0  0  0  0  0  0  0  0  0
   20.6986   15.2635   24.6463 H   0  0  0  0  0  0  0  0  0  0  0  0
   21.7677   16.4653   25.4255 H   0  0  0  0  0  0  0  0  0  0  0  0
  1  2  1  0  0  0  0
  1  3  1  0  0  0  0
  1  4  1  0  0  0  0
  4  5  1  0  0  0  0
  4  6  1  0  0  0  0
  4  7  1  0  0  0  0
  7  8  1  0  0  0  0
  7  9  1  0  0  0  0
  7 10  1  0  0  0  0
 10 11  1  0  0  0  0
 10 12  1  0  0  0  0
 10 13  1  0  0  0  0
 13 14  1  0  0  0  0
 13 15  1  0  0  0  0
 13 16  1  0  0  0  0
 16 17  1  0  0  0  0
 16 18  1  0  0  0  0
 16 19  1  0  0  0  0
 19 20  1  0  0  0  0
 19 21  1  0  0  0  0
 19 22  1  0  0  0  0
  1 23  1  0  0  0  0
 23 24  1  0  0  0  0
 23 25  1  0  0  0  0
 23 26  1  0  0  0  0
M  END
> <VConfSearch Rank>
768

> <Conf_Id>
45

> <Delta U+W>
0.471

> <U+W>
22.313

> <U>
71.138

> <W>
-48.825

> <W(PB)>
-51.169

> <W(SA)>
2.344

> <Valence>
2.016

> <Coulomb>
68.932

> <VdW>
0.190

> <VdW6>
-5.902

> <VdW12>
6.092

> <Bond>
0.149

> <Angle>
0.477

> <Pdih>
1.390

> <Idih>
0.000

> <Tether>
0.000

$$$$
VeraChem MOL file


 26 25  0  0  0  0  0  0  0  0999 V2000     
   18.5112   17.7996   24.9064 N   0  3  0  0  0  0  0  0  0  0  0  0
   19.0418   18.4914   25.4570 H   0  0  0  0  0  0  0  0  0  0  0  0
   19.1500   16.9996   24.7778 H   0  0  0  0  0  0  0  0  0  0  0  0
   18.1316   18.3861   23.5604 C   0  0  0  0  0  0  0  0  0  0  0  0
   17.4646   19.2334   23.7378 H   0  0  0  0  0  0  0  0  0  0  0  0
   17.5742   17.6218   23.0128 H   0  0  0  0  0  0  0  0  0  0  0  0
   19.3374   18.8430   22.7160 C   0  0  0  0  0  0  0  0  0  0  0  0
   19.9993   17.9852   22.5423 H   0  0  0  0  0  0  0  0  0  0  0  0
   18.9704   19.1621   21.7315 H   0  0  0  0  0  0  0  0  0  0  0  0
   20.1184   20.0074   23.3752 C   0  0  0  0  0  0  0  0  0  0  0  0
   20.5676   19.6740   24.3202 H   0  0  0  0  0  0  0  0  0  0  0  0
   19.4125   20.8090   23.6337 H   0  0  0  0  0  0  0  0  0  0  0  0
   21.2232   20.6012   22.4668 C   0  0  0  0  0  0  0  0  0  0  0  0
   20.7766   20.9591   21.5289 H   0  0  0  0  0  0  0  0  0  0  0  0
   21.6446   21.4860   22.9639 H   0  0  0  0  0  0  0  0  0  0  0  0
   22.3674   19.6077   22.1541 C   0  0  0  0  0  0  0  0  0  0  0  0
   21.9806   18.7492   21.5891 H   0  0  0  0  0  0  0  0  0  0  0  0
   22.7820   19.2116   23.0916 H   0  0  0  0  0  0  0  0  0  0  0  0
   23.4949   20.2762   21.3388 C   0  0  0  0  0  0  0  0  0  0  0  0
   23.1172   20.6564   20.3807 H   0  0  0  0  0  0  0  0  0  0  0  0
   24.2962   19.5574   21.1234 H   0  0  0  0  0  0  0  0  0  0  0  0
   23.9364   21.1168   21.8899 H   0  0  0  0  0  0  0  0  0  0  0  0
   17.2583   17.3685   25.6561 C   0  0  0  0  0  0  0  0  0  0  0  0
   16.7303   16.6140   25.0689 H   0  0  0  0  0  0  0  0  0  0  0  0
   17.5457   16.9490   26.6228 H   0  0  0  0  0  0  0  0  0  0  0  0
   16.6138   18.2372   25.8078 H   0  0  0  0  0  0  0  0  0  0  0  0
  1  2  1  0  0  0  0
  1  3  1  0  0  0  0
  1  4  1  0  0  0  0
  4  5  1  0  0  0  0
  4  6  1  0  0  0  0
  4  7  1  0  0  0  0
  7  8  1  0  0  0  0
  7  9  1  0  0  0  0
  7 10  1  0  0  0  0
 10 11  1  0  0  0  0
 10 12  1  0  0  0  0
 10 13  1  0  0  0  0
 13 14  1  0  0  0  0
 13 15  1  0  0  0  0
 13 16  1  0  0  0  0
 16 17  1  0  0  0  0
 16 18  1  0  0  0  0
 16 19  1  0  0  0  0
 19 20  1  0  0  0  0
 19 21  1  0  0  0  0
 19 22  1  0  0  0  0
  1 23  1  0  0  0  0
 23 24  1  0  0  0  0
 23 25  1  0  0  0  0
 23 26  1  0  0  0  0
M  END
> <VConfSearch Rank>
769

> <Conf_Id>
143

> <Delta U+W>
0.915

> <U+W>
22.757

> <U>
71.994

> <W>
-49.237

> <W(PB)>
-51.537

> <W(SA)>
2.300

> <Valence>
2.376

> <Coulomb>
69.315

> <VdW>
0.303

> <VdW6>
-6.508

> <VdW12>
6.810

> <Bond>
0.182

> <Angle>
0.660

> <Pdih>
1.534

> <Idih>
0.000

> <Tether>
0.000

$$$$
VeraChem MOL file


 26 25  0  0  0  0  0  0  0  0999 V2000     
   20.3691   18.7191   20.7492 N   0  3  0  0  0  0  0  0  0  0  0  0
   20.8414   19.6260   20.8816 H   0  0  0  0  0  0  0  0  0  0  0  0
   19.3863   18.9482   20.5343 H   0  0  0  0  0  0  0  0  0  0  0  0
   20.4472   17.8991   22.0226 C   0  0  0  0  0  0  0  0  0  0  0  0
   21.5000   17.6848   22.2230 H   0  0  0  0  0  0  0  0  0  0  0  0
   19.9363   16.9514   21.8341 H   0  0  0  0  0  0  0  0  0  0  0  0
   19.8139   18.5836   23.2502 C   0  0  0  0  0  0  0  0  0  0  0  0
   18.7645   18.8251   23.0357 H   0  0  0  0  0  0  0  0  0  0  0  0
   19.8139   17.8594   24.0740 H   0  0  0  0  0  0  0  0  0  0  0  0
   20.5779   19.8579   23.6855 C   0  0  0  0  0  0  0  0  0  0  0  0
   20.6705   20.5396   22.8299 H   0  0  0  0  0  0  0  0  0  0  0  0
   21.6036   19.5870   23.9721 H   0  0  0  0  0  0  0  0  0  0  0  0
   19.9090   20.6394   24.8462 C   0  0  0  0  0  0  0  0  0  0  0  0
   20.5153   21.5368   25.0322 H   0  0  0  0  0  0  0  0  0  0  0  0
   18.9230   21.0098   24.5334 H   0  0  0  0  0  0  0  0  0  0  0  0
   19.7894   19.8547   26.1784 C   0  0  0  0  0  0  0  0  0  0  0  0
   19.9390   20.5554   27.0118 H   0  0  0  0  0  0  0  0  0  0  0  0
   20.5965   19.1134   26.2597 H   0  0  0  0  0  0  0  0  0  0  0  0
   18.4129   19.1753   26.3696 C   0  0  0  0  0  0  0  0  0  0  0  0
   18.2004   18.4430   25.5831 H   0  0  0  0  0  0  0  0  0  0  0  0
   17.6053   19.9188   26.3652 H   0  0  0  0  0  0  0  0  0  0  0  0
   18.3749   18.6494   27.3323 H   0  0  0  0  0  0  0  0  0  0  0  0
   21.0032   17.9506   19.5981 C   0  0  0  0  0  0  0  0  0  0  0  0
   20.4670   17.0097   19.4561 H   0  0  0  0  0  0  0  0  0  0  0  0
   20.9405   18.5518   18.6883 H   0  0  0  0  0  0  0  0  0  0  0  0
   22.0499   17.7480   19.8351 H   0  0  0  0  0  0  0  0  0  0  0  0
  1  2  1  0  0  0  0
  1  3  1  0  0  0  0
  1  4  1  0  0  0  0
  4  5  1  0  0  0  0
  4  6  1  0  0  0  0
  4  7  1  0  0  0  0
  7  8  1  0  0  0  0
  7  9  1  0  0  0  0
  7 10  1  0  0  0  0
 10 11  1  0  0  0  0
 10 12  1  0  0  0  0
 10 13  1  0  0  0  0
 13 14  1  0  0  0  0
 13 15  1  0  0  0  0
 13 16  1  0  0  0  0
 16 17  1  0  0  0  0
 16 18  1  0  0  0  0
 16 19  1  0  0  0  0
 19 20  1  0  0  0  0
 19 21  1  0  0  0  0
 19 22  1  0  0  0  0
  1 23  1  0  0  0  0
 23 24  1  0  0  0  0
 23 25  1  0  0  0  0
 23 26  1  0  0  0  0
M  END
> <VConfSearch Rank>
770

> <Conf_Id>
76

> <Delta U+W>
3.468

> <U+W>
25.310

> <U>
74.594

> <W>
-49.283

> <W(PB)>
-51.537

> <W(SA)>
2.253

> <Valence>
4.886

> <Coulomb>
69.332

> <VdW>
0.376

> <VdW6>
-7.329

> <VdW12>
7.705

> <Bond>
0.232

> <Angle>
1.251

> <Pdih>
3.403

> <Idih>
0.000

> <Tether>
0.000

$$$$
VeraChem MOL file


 26 25  0  0  0  0  0  0  0  0999 V2000     
   21.2513   19.6424   25.7961 N   0  3  0  0  0  0  0  0  0  0  0  0
   21.3081   20.6067   25.4332 H   0  0  0  0  0  0  0  0  0  0  0  0
   22.2004   19.2519   25.6884 H   0  0  0  0  0  0  0  0  0  0  0  0
   20.2585   18.8352   24.9840 C   0  0  0  0  0  0  0  0  0  0  0  0
   19.2712   19.2842   25.1190 H   0  0  0  0  0  0  0  0  0  0  0  0
   20.2351   17.8223   25.3938 H   0  0  0  0  0  0  0  0  0  0  0  0
   20.6009   18.7793   23.4842 C   0  0  0  0  0  0  0  0  0  0  0  0
   20.6475   19.7996   23.0873 H   0  0  0  0  0  0  0  0  0  0  0  0
   21.6005   18.3430   23.3566 H   0  0  0  0  0  0  0  0  0  0  0  0
   19.5655   17.9363   22.7014 C   0  0  0  0  0  0  0  0  0  0  0  0
   18.5512   18.3255   22.8661 H   0  0  0  0  0  0  0  0  0  0  0  0
   19.5706   16.9188   23.1166 H   0  0  0  0  0  0  0  0  0  0  0  0
   19.8615   17.8473   21.1812 C   0  0  0  0  0  0  0  0  0  0  0  0
   20.9429   17.9129   20.9982 H   0  0  0  0  0  0  0  0  0  0  0  0
   19.5633   16.8487   20.8328 H   0  0  0  0  0  0  0  0  0  0  0  0
   19.1097   18.8872   20.3111 C   0  0  0  0  0  0  0  0  0  0  0  0
   18.0255   18.7443   20.4203 H   0  0  0  0  0  0  0  0  0  0  0  0
   19.3373   18.6866   19.2548 H   0  0  0  0  0  0  0  0  0  0  0  0
   19.4663   20.3572   20.6232 C   0  0  0  0  0  0  0  0  0  0  0  0
   20.5514   20.5183   20.5881 H   0  0  0  0  0  0  0  0  0  0  0  0
   19.0991   20.6550   21.6129 H   0  0  0  0  0  0  0  0  0  0  0  0
   19.0036   21.0281   19.8878 H   0  0  0  0  0  0  0  0  0  0  0  0
   20.8392   19.6471   27.2617 C   0  0  0  0  0  0  0  0  0  0  0  0
   19.8470   20.0943   27.3544 H   0  0  0  0  0  0  0  0  0  0  0  0
   20.8182   18.6198   27.6322 H   0  0  0  0  0  0  0  0  0  0  0  0
   21.5622   20.2314   27.8353 H   0  0  0  0  0  0  0  0  0  0  0  0
  1  2  1  0  0  0  0
  1  3  1  0  0  0  0
  1  4  1  0  0  0  0
  4  5  1  0  0  0  0
  4  6  1  0  0  0  0
  4  7  1  0  0  0  0
  7  8  1  0  0  0  0
  7  9  1  0  0  0  0
  7 10  1  0  0  0  0
 10 11  1  0  0  0  0
 10 12  1  0  0  0  0
 10 13  1  0  0  0  0
 13 14  1  0  0  0  0
 13 15  1  0  0  0  0
 13 16  1  0  0  0  0
 16 17  1  0  0  0  0
 16 18  1  0  0  0  0
 16 19  1  0  0  0  0
 19 20  1  0  0  0  0
 19 21  1  0  0  0  0
 19 22  1  0  0  0  0
  1 23  1  0  0  0  0
 23 24  1  0  0  0  0
 23 25  1  0  0  0  0
 23 26  1  0  0  0  0
M  END
> <VConfSearch Rank>
771

> <Conf_Id>
123

> <Delta U+W>
3.101

> <U+W>
24.943

> <U>
74.070

> <W>
-49.127

> <W(PB)>
-51.421

> <W(SA)>
2.295

> <Valence>
4.690

> <Coulomb>
69.115

> <VdW>
0.266

> <VdW6>
-6.809

> <VdW12>
7.075

> <Bond>
0.212

> <Angle>
1.133

> <Pdih>
3.345

> <Idih>
0.000

> <Tether>
0.000

$$$$
VeraChem MOL file


 26 25  0  0  0  0  0  0  0  0999 V2000     
   22.4017   18.2782   24.2942 N   0  3  0  0  0  0  0  0  0  0  0  0
   22.4451   17.2941   23.9869 H   0  0  0  0  0  0  0  0  0  0  0  0
   21.7734   18.2851   25.1117 H   0  0  0  0  0  0  0  0  0  0  0  0
   21.8287   19.1449   23.1895 C   0  0  0  0  0  0  0  0  0  0  0  0
   22.5249   19.1084   22.3478 H   0  0  0  0  0  0  0  0  0  0  0  0
   21.7889   20.1742   23.5547 H   0  0  0  0  0  0  0  0  0  0  0  0
   20.4288   18.7094   22.7134 C   0  0  0  0  0  0  0  0  0  0  0  0
   20.1555   19.3236   21.8482 H   0  0  0  0  0  0  0  0  0  0  0  0
   20.4724   17.6731   22.3530 H   0  0  0  0  0  0  0  0  0  0  0  0
   19.3541   18.8369   23.8233 C   0  0  0  0  0  0  0  0  0  0  0  0
   19.3699   19.8463   24.2571 H   0  0  0  0  0  0  0  0  0  0  0  0
   19.6124   18.1502   24.6404 H   0  0  0  0  0  0  0  0  0  0  0  0
   17.9226   18.4905   23.3361 C   0  0  0  0  0  0  0  0  0  0  0  0
   17.9642   17.7564   22.5197 H   0  0  0  0  0  0  0  0  0  0  0  0
   17.3934   17.9884   24.1578 H   0  0  0  0  0  0  0  0  0  0  0  0
   17.0689   19.7129   22.9111 C   0  0  0  0  0  0  0  0  0  0  0  0
   16.9470   20.3922   23.7663 H   0  0  0  0  0  0  0  0  0  0  0  0
   16.0593   19.3612   22.6567 H   0  0  0  0  0  0  0  0  0  0  0  0
   17.6362   20.4996   21.7092 C   0  0  0  0  0  0  0  0  0  0  0  0
   17.8242   19.8369   20.8546 H   0  0  0  0  0  0  0  0  0  0  0  0
   18.5723   21.0080   21.9710 H   0  0  0  0  0  0  0  0  0  0  0  0
   16.9249   21.2705   21.3855 H   0  0  0  0  0  0  0  0  0  0  0  0
   23.7862   18.7793   24.6810 C   0  0  0  0  0  0  0  0  0  0  0  0
   23.7096   19.8107   25.0323 H   0  0  0  0  0  0  0  0  0  0  0  0
   24.1866   18.1472   25.4768 H   0  0  0  0  0  0  0  0  0  0  0  0
   24.4415   18.7332   23.8084 H   0  0  0  0  0  0  0  0  0  0  0  0
  1  2  1  0  0  0  0
  1  3  1  0  0  0  0
  1  4  1  0  0  0  0
  4  5  1  0  0  0  0
  4  6  1  0  0  0  0
  4  7  1  0  0  0  0
  7  8  1  0  0  0  0
  7  9  1  0  0  0  0
  7 10  1  0  0  0  0
 10 11  1  0  0  0  0
 10 12  1  0  0  0  0
 10 13  1  0  0  0  0
 13 14  1  0  0  0  0
 13 15  1  0  0  0  0
 13 16  1  0  0  0  0
 16 17  1  0  0  0  0
 16 18  1  0  0  0  0
 16 19  1  0  0  0  0
 19 20  1  0  0  0  0
 19 21  1  0  0  0  0
 19 22  1  0  0  0  0
  1 23  1  0  0  0  0
 23 24  1  0  0  0  0
 23 25  1  0  0  0  0
 23 26  1  0  0  0  0
M  END
> <VConfSearch Rank>
772

> <Conf_Id>
111

> <Delta U+W>
3.383

> <U+W>
25.225

> <U>
74.516

> <W>
-49.292

> <W(PB)>
-51.558

> <W(SA)>
2.266

> <Valence>
4.842

> <Coulomb>
69.333

> <VdW>
0.342

> <VdW6>
-7.369

> <VdW12>
7.711

> <Bond>
0.232

> <Angle>
1.153

> <Pdih>
3.457

> <Idih>
0.000

> <Tether>
0.000

$$$$
VeraChem MOL file


 26 25  0  0  0  0  0  0  0  0999 V2000     
   19.5594   21.4102   23.8052 N   0  3  0  0  0  0  0  0  0  0  0  0
   19.4962   22.0440   22.9935 H   0  0  0  0  0  0  0  0  0  0  0  0
   20.5103   21.0128   23.7732 H   0  0  0  0  0  0  0  0  0  0  0  0
   18.5313   20.3026   23.6832 C   0  0  0  0  0  0  0  0  0  0  0  0
   17.5414   20.7654   23.7098 H   0  0  0  0  0  0  0  0  0  0  0  0
   18.6266   19.6568   24.5592 H   0  0  0  0  0  0  0  0  0  0  0  0
   18.6688   19.4620   22.3968 C   0  0  0  0  0  0  0  0  0  0  0  0
   17.8590   18.7207   22.3731 H   0  0  0  0  0  0  0  0  0  0  0  0
   18.5129   20.1121   21.5257 H   0  0  0  0  0  0  0  0  0  0  0  0
   20.0303   18.7351   22.2556 C   0  0  0  0  0  0  0  0  0  0  0  0
   20.8428   19.4709   22.1901 H   0  0  0  0  0  0  0  0  0  0  0  0
   20.0297   18.1960   21.2993 H   0  0  0  0  0  0  0  0  0  0  0  0
   20.3147   17.7412   23.4106 C   0  0  0  0  0  0  0  0  0  0  0  0
   20.2923   18.2748   24.3699 H   0  0  0  0  0  0  0  0  0  0  0  0
   19.5152   16.9890   23.4570 H   0  0  0  0  0  0  0  0  0  0  0  0
   21.6848   17.0308   23.2890 C   0  0  0  0  0  0  0  0  0  0  0  0
   21.8557   16.4384   24.1989 H   0  0  0  0  0  0  0  0  0  0  0  0
   22.4899   17.7781   23.2543 H   0  0  0  0  0  0  0  0  0  0  0  0
   21.7890   16.0963   22.0621 C   0  0  0  0  0  0  0  0  0  0  0  0
   21.7517   16.6587   21.1211 H   0  0  0  0  0  0  0  0  0  0  0  0
   20.9750   15.3599   22.0559 H   0  0  0  0  0  0  0  0  0  0  0  0
   22.7386   15.5459   22.0785 H   0  0  0  0  0  0  0  0  0  0  0  0
   19.3441   22.1775   25.1021 C   0  0  0  0  0  0  0  0  0  0  0  0
   20.0913   22.9707   25.1775 H   0  0  0  0  0  0  0  0  0  0  0  0
   18.3426   22.6134   25.0993 H   0  0  0  0  0  0  0  0  0  0  0  0
   19.4471   21.4922   25.9463 H   0  0  0  0  0  0  0  0  0  0  0  0
  1  2  1  0  0  0  0
  1  3  1  0  0  0  0
  1  4  1  0  0  0  0
  4  5  1  0  0  0  0
  4  6  1  0  0  0  0
  4  7  1  0  0  0  0
  7  8  1  0  0  0  0
  7  9  1  0  0  0  0
  7 10  1  0  0  0  0
 10 11  1  0  0  0  0
 10 12  1  0  0  0  0
 10 13  1  0  0  0  0
 13 14  1  0  0  0  0
 13 15  1  0  0  0  0
 13 16  1  0  0  0  0
 16 17  1  0  0  0  0
 16 18  1  0  0  0  0
 16 19  1  0  0  0  0
 19 20  1  0  0  0  0
 19 21  1  0  0  0  0
 19 22  1  0  0  0  0
  1 23  1  0  0  0  0
 23 24  1  0  0  0  0
 23 25  1  0  0  0  0
 23 26  1  0  0  0  0
M  END
> <VConfSearch Rank>
773

> <Conf_Id>
126

> <Delta U+W>
1.519

> <U+W>
23.361

> <U>
72.579

> <W>
-49.218

> <W(PB)>
-51.496

> <W(SA)>
2.279

> <Valence>
2.678

> <Coulomb>
69.622

> <VdW>
0.279

> <VdW6>
-7.328

> <VdW12>
7.608

> <Bond>
0.212

> <Angle>
0.911

> <Pdih>
1.555

> <Idih>
0.000

> <Tether>
0.000

$$$$
VeraChem MOL file


 26 25  0  0  0  0  0  0  0  0999 V2000     
   19.6379   20.2216   25.3673 N   0  3  0  0  0  0  0  0  0  0  0  0
   19.1434   20.4444   24.4905 H   0  0  0  0  0  0  0  0  0  0  0  0
   20.2375   21.0382   25.5627 H   0  0  0  0  0  0  0  0  0  0  0  0
   20.4902   18.9818   25.1801 C   0  0  0  0  0  0  0  0  0  0  0  0
   19.8221   18.1411   24.9793 H   0  0  0  0  0  0  0  0  0  0  0  0
   21.0042   18.7877   26.1250 H   0  0  0  0  0  0  0  0  0  0  0  0
   21.5305   19.1045   24.0474 C   0  0  0  0  0  0  0  0  0  0  0  0
   22.2306   19.9148   24.2903 H   0  0  0  0  0  0  0  0  0  0  0  0
   22.1281   18.1837   24.0177 H   0  0  0  0  0  0  0  0  0  0  0  0
   20.9177   19.3605   22.6471 C   0  0  0  0  0  0  0  0  0  0  0  0
   21.7419   19.4594   21.9288 H   0  0  0  0  0  0  0  0  0  0  0  0
   20.3896   20.3232   22.6396 H   0  0  0  0  0  0  0  0  0  0  0  0
   19.9596   18.2332   22.1844 C   0  0  0  0  0  0  0  0  0  0  0  0
   20.4971   17.2751   22.1654 H   0  0  0  0  0  0  0  0  0  0  0  0
   19.1476   18.1170   22.9143 H   0  0  0  0  0  0  0  0  0  0  0  0
   19.3237   18.4955   20.7975 C   0  0  0  0  0  0  0  0  0  0  0  0
   18.7741   19.4471   20.8138 H   0  0  0  0  0  0  0  0  0  0  0  0
   18.5770   17.7137   20.5995 H   0  0  0  0  0  0  0  0  0  0  0  0
   20.3488   18.5065   19.6404 C   0  0  0  0  0  0  0  0  0  0  0  0
   20.9347   17.5784   19.6228 H   0  0  0  0  0  0  0  0  0  0  0  0
   21.0438   19.3510   19.7240 H   0  0  0  0  0  0  0  0  0  0  0  0
   19.8359   18.5973   18.6742 H   0  0  0  0  0  0  0  0  0  0  0  0
   18.6451   20.0026   26.5002 C   0  0  0  0  0  0  0  0  0  0  0  0
   18.0024   19.1541   26.2556 H   0  0  0  0  0  0  0  0  0  0  0  0
   19.1927   19.7984   27.4229 H   0  0  0  0  0  0  0  0  0  0  0  0
   18.0377   20.9021   26.6232 H   0  0  0  0  0  0  0  0  0  0  0  0
  1  2  1  0  0  0  0
  1  3  1  0  0  0  0
  1  4  1  0  0  0  0
  4  5  1  0  0  0  0
  4  6  1  0  0  0  0
  4  7  1  0  0  0  0
  7  8  1  0  0  0  0
  7  9  1  0  0  0  0
  7 10  1  0  0  0  0
 10 11  1  0  0  0  0
 10 12  1  0  0  0  0
 10 13  1  0  0  0  0
 13 14  1  0  0  0  0
 13 15  1  0  0  0  0
 13 16  1  0  0  0  0
 16 17  1  0  0  0  0
 16 18  1  0  0  0  0
 16 19  1  0  0  0  0
 19 20  1  0  0  0  0
 19 21  1  0  0  0  0
 19 22  1  0  0  0  0
  1 23  1  0  0  0  0
 23 24  1  0  0  0  0
 23 25  1  0  0  0  0
 23 26  1  0  0  0  0
M  END
> <VConfSearch Rank>
774

> <Conf_Id>
134

> <Delta U+W>
1.464

> <U+W>
23.306

> <U>
72.579

> <W>
-49.273

> <W(PB)>
-51.540

> <W(SA)>
2.267

> <Valence>
2.677

> <Coulomb>
69.622

> <VdW>
0.280

> <VdW6>
-7.328

> <VdW12>
7.608

> <Bond>
0.212

> <Angle>
0.911

> <Pdih>
1.555

> <Idih>
0.000

> <Tether>
0.000

$$$$
VeraChem MOL file


 26 25  0  0  0  0  0  0  0  0999 V2000     
   20.7704   16.6692   22.0694 N   0  3  0  0  0  0  0  0  0  0  0  0
   21.7107   17.0781   21.9536 H   0  0  0  0  0  0  0  0  0  0  0  0
   20.3045   16.7890   21.1565 H   0  0  0  0  0  0  0  0  0  0  0  0
   20.0064   17.4113   23.1476 C   0  0  0  0  0  0  0  0  0  0  0  0
   20.5349   17.2663   24.0932 H   0  0  0  0  0  0  0  0  0  0  0  0
   19.0173   16.9543   23.2323 H   0  0  0  0  0  0  0  0  0  0  0  0
   19.8587   18.9168   22.8626 C   0  0  0  0  0  0  0  0  0  0  0  0
   20.8570   19.3611   22.7615 H   0  0  0  0  0  0  0  0  0  0  0  0
   19.3414   19.0583   21.9044 H   0  0  0  0  0  0  0  0  0  0  0  0
   19.0726   19.6286   23.9887 C   0  0  0  0  0  0  0  0  0  0  0  0
   19.6088   19.5215   24.9411 H   0  0  0  0  0  0  0  0  0  0  0  0
   18.1085   19.1196   24.1271 H   0  0  0  0  0  0  0  0  0  0  0  0
   18.7965   21.1274   23.7018 C   0  0  0  0  0  0  0  0  0  0  0  0
   18.1632   21.2093   22.8076 H   0  0  0  0  0  0  0  0  0  0  0  0
   18.2024   21.5406   24.5286 H   0  0  0  0  0  0  0  0  0  0  0  0
   20.0572   22.0074   23.5029 C   0  0  0  0  0  0  0  0  0  0  0  0
   19.7352   23.0398   23.3074 H   0  0  0  0  0  0  0  0  0  0  0  0
   20.6046   21.6899   22.6053 H   0  0  0  0  0  0  0  0  0  0  0  0
   21.0075   22.0055   24.7218 C   0  0  0  0  0  0  0  0  0  0  0  0
   20.4773   22.3019   25.6361 H   0  0  0  0  0  0  0  0  0  0  0  0
   21.8322   22.7132   24.5676 H   0  0  0  0  0  0  0  0  0  0  0  0
   21.4494   21.0148   24.8861 H   0  0  0  0  0  0  0  0  0  0  0  0
   20.8705   15.1931   22.4282 C   0  0  0  0  0  0  0  0  0  0  0  0
   19.8650   14.7750   22.5126 H   0  0  0  0  0  0  0  0  0  0  0  0
   21.4226   14.6704   21.6438 H   0  0  0  0  0  0  0  0  0  0  0  0
   21.3956   15.0897   23.3803 H   0  0  0  0  0  0  0  0  0  0  0  0
  1  2  1  0  0  0  0
  1  3  1  0  0  0  0
  1  4  1  0  0  0  0
  4  5  1  0  0  0  0
  4  6  1  0  0  0  0
  4  7  1  0  0  0  0
  7  8  1  0  0  0  0
  7  9  1  0  0  0  0
  7 10  1  0  0  0  0
 10 11  1  0  0  0  0
 10 12  1  0  0  0  0
 10 13  1  0  0  0  0
 13 14  1  0  0  0  0
 13 15  1  0  0  0  0
 13 16  1  0  0  0  0
 16 17  1  0  0  0  0
 16 18  1  0  0  0  0
 16 19  1  0  0  0  0
 19 20  1  0  0  0  0
 19 21  1  0  0  0  0
 19 22  1  0  0  0  0
  1 23  1  0  0  0  0
 23 24  1  0  0  0  0
 23 25  1  0  0  0  0
 23 26  1  0  0  0  0
M  END
> <VConfSearch Rank>
775

> <Conf_Id>
30

> <Delta U+W>
0.910

> <U+W>
22.752

> <U>
71.870

> <W>
-49.118

> <W(PB)>
-51.409

> <W(SA)>
2.290

> <Valence>
2.682

> <Coulomb>
68.933

> <VdW>
0.255

> <VdW6>
-6.833

> <VdW12>
7.088

> <Bond>
0.205

> <Angle>
1.003

> <Pdih>
1.473

> <Idih>
0.000

> <Tether>
0.000

$$$$
VeraChem MOL file


 26 25  0  0  0  0  0  0  0  0999 V2000     
   19.0944   21.6555   22.7279 N   0  3  0  0  0  0  0  0  0  0  0  0
   18.4939   21.4759   21.9081 H   0  0  0  0  0  0  0  0  0  0  0  0
   20.0417   21.8048   22.3469 H   0  0  0  0  0  0  0  0  0  0  0  0
   19.0862   20.4565   23.6547 C   0  0  0  0  0  0  0  0  0  0  0  0
   18.0671   20.3286   24.0282 H   0  0  0  0  0  0  0  0  0  0  0  0
   19.7377   20.6834   24.5024 H   0  0  0  0  0  0  0  0  0  0  0  0
   19.5552   19.1577   22.9744 C   0  0  0  0  0  0  0  0  0  0  0  0
   18.9081   18.9416   22.1140 H   0  0  0  0  0  0  0  0  0  0  0  0
   20.5717   19.3039   22.5876 H   0  0  0  0  0  0  0  0  0  0  0  0
   19.5282   17.9649   23.9588 C   0  0  0  0  0  0  0  0  0  0  0  0
   18.5223   17.8843   24.3938 H   0  0  0  0  0  0  0  0  0  0  0  0
   20.2052   18.1626   24.8006 H   0  0  0  0  0  0  0  0  0  0  0  0
   19.8851   16.6073   23.2995 C   0  0  0  0  0  0  0  0  0  0  0  0
   19.8018   15.8154   24.0566 H   0  0  0  0  0  0  0  0  0  0  0  0
   19.1312   16.3719   22.5356 H   0  0  0  0  0  0  0  0  0  0  0  0
   21.2916   16.5344   22.6516 C   0  0  0  0  0  0  0  0  0  0  0  0
   21.3581   17.2339   21.8076 H   0  0  0  0  0  0  0  0  0  0  0  0
   21.4263   15.5322   22.2211 H   0  0  0  0  0  0  0  0  0  0  0  0
   22.4423   16.8065   23.6470 C   0  0  0  0  0  0  0  0  0  0  0  0
   22.4191   17.8393   24.0165 H   0  0  0  0  0  0  0  0  0  0  0  0
   23.4148   16.6513   23.1623 H   0  0  0  0  0  0  0  0  0  0  0  0
   22.3857   16.1306   24.5101 H   0  0  0  0  0  0  0  0  0  0  0  0
   18.6192   22.8927   23.4771 C   0  0  0  0  0  0  0  0  0  0  0  0
   18.6298   23.7486   22.7985 H   0  0  0  0  0  0  0  0  0  0  0  0
   17.6036   22.7237   23.8418 H   0  0  0  0  0  0  0  0  0  0  0  0
   19.2883   23.0816   24.3194 H   0  0  0  0  0  0  0  0  0  0  0  0
  1  2  1  0  0  0  0
  1  3  1  0  0  0  0
  1  4  1  0  0  0  0
  4  5  1  0  0  0  0
  4  6  1  0  0  0  0
  4  7  1  0  0  0  0
  7  8  1  0  0  0  0
  7  9  1  0  0  0  0
  7 10  1  0  0  0  0
 10 11  1  0  0  0  0
 10 12  1  0  0  0  0
 10 13  1  0  0  0  0
 13 14  1  0  0  0  0
 13 15  1  0  0  0  0
 13 16  1  0  0  0  0
 16 17  1  0  0  0  0
 16 18  1  0  0  0  0
 16 19  1  0  0  0  0
 19 20  1  0  0  0  0
 19 21  1  0  0  0  0
 19 22  1  0  0  0  0
  1 23  1  0  0  0  0
 23 24  1  0  0  0  0
 23 25  1  0  0  0  0
 23 26  1  0  0  0  0
M  END
> <VConfSearch Rank>
776

> <Conf_Id>
29

> <Delta U+W>
0.886

> <U+W>
22.729

> <U>
71.870

> <W>
-49.141

> <W(PB)>
-51.404

> <W(SA)>
2.262

> <Valence>
2.682

> <Coulomb>
68.933

> <VdW>
0.255

> <VdW6>
-6.833

> <VdW12>
7.088

> <Bond>
0.205

> <Angle>
1.003

> <Pdih>
1.473

> <Idih>
0.000

> <Tether>
0.000

$$$$
VeraChem MOL file


 26 25  0  0  0  0  0  0  0  0999 V2000     
   19.4990   21.3048   24.6202 N   0  3  0  0  0  0  0  0  0  0  0  0
   20.3231   21.8164   24.9721 H   0  0  0  0  0  0  0  0  0  0  0  0
   19.2080   20.6872   25.3939 H   0  0  0  0  0  0  0  0  0  0  0  0
   19.8750   20.4805   23.4056 C   0  0  0  0  0  0  0  0  0  0  0  0
   20.1881   21.1686   22.6164 H   0  0  0  0  0  0  0  0  0  0  0  0
   18.9782   19.9548   23.0689 H   0  0  0  0  0  0  0  0  0  0  0  0
   20.9990   19.4642   23.6829 C   0  0  0  0  0  0  0  0  0  0  0  0
   21.8834   19.9987   24.0544 H   0  0  0  0  0  0  0  0  0  0  0  0
   20.6914   18.7821   24.4857 H   0  0  0  0  0  0  0  0  0  0  0  0
   21.3962   18.6548   22.4235 C   0  0  0  0  0  0  0  0  0  0  0  0
   22.2107   17.9650   22.6820 H   0  0  0  0  0  0  0  0  0  0  0  0
   21.8174   19.3431   21.6777 H   0  0  0  0  0  0  0  0  0  0  0  0
   20.2344   17.8625   21.7650 C   0  0  0  0  0  0  0  0  0  0  0  0
   19.4978   18.5672   21.3561 H   0  0  0  0  0  0  0  0  0  0  0  0
   20.6305   17.3151   20.8985 H   0  0  0  0  0  0  0  0  0  0  0  0
   19.5064   16.8617   22.6982 C   0  0  0  0  0  0  0  0  0  0  0  0
   18.7029   16.3734   22.1292 H   0  0  0  0  0  0  0  0  0  0  0  0
   19.0102   17.3983   23.5179 H   0  0  0  0  0  0  0  0  0  0  0  0
   20.4388   15.7728   23.2762 C   0  0  0  0  0  0  0  0  0  0  0  0
   19.8626   15.0425   23.8587 H   0  0  0  0  0  0  0  0  0  0  0  0
   21.1961   16.2036   23.9429 H   0  0  0  0  0  0  0  0  0  0  0  0
   20.9557   15.2299   22.4743 H   0  0  0  0  0  0  0  0  0  0  0  0
   18.3813   22.2744   24.2619 C   0  0  0  0  0  0  0  0  0  0  0  0
   18.1202   22.8621   25.1449 H   0  0  0  0  0  0  0  0  0  0  0  0
   18.7237   22.9383   23.4650 H   0  0  0  0  0  0  0  0  0  0  0  0
   17.5099   21.7092   23.9241 H   0  0  0  0  0  0  0  0  0  0  0  0
  1  2  1  0  0  0  0
  1  3  1  0  0  0  0
  1  4  1  0  0  0  0
  4  5  1  0  0  0  0
  4  6  1  0  0  0  0
  4  7  1  0  0  0  0
  7  8  1  0  0  0  0
  7  9  1  0  0  0  0
  7 10  1  0  0  0  0
 10 11  1  0  0  0  0
 10 12  1  0  0  0  0
 10 13  1  0  0  0  0
 13 14  1  0  0  0  0
 13 15  1  0  0  0  0
 13 16  1  0  0  0  0
 16 17  1  0  0  0  0
 16 18  1  0  0  0  0
 16 19  1  0  0  0  0
 19 20  1  0  0  0  0
 19 21  1  0  0  0  0
 19 22  1  0  0  0  0
  1 23  1  0  0  0  0
 23 24  1  0  0  0  0
 23 25  1  0  0  0  0
 23 26  1  0  0  0  0
M  END
> <VConfSearch Rank>
777

> <Conf_Id>
82

> <Delta U+W>
1.026

> <U+W>
22.868

> <U>
72.455

> <W>
-49.586

> <W(PB)>
-51.821

> <W(SA)>
2.234

> <Valence>
2.908

> <Coulomb>
69.435

> <VdW>
0.112

> <VdW6>
-7.765

> <VdW12>
7.877

> <Bond>
0.233

> <Angle>
1.170

> <Pdih>
1.506

> <Idih>
0.000

> <Tether>
0.000

$$$$
VeraChem MOL file


 26 25  0  0  0  0  0  0  0  0999 V2000     
   22.7318   19.2996   23.2498 N   0  3  0  0  0  0  0  0  0  0  0  0
   22.7316   18.2741   23.1361 H   0  0  0  0  0  0  0  0  0  0  0  0
   23.1918   19.4754   24.1566 H   0  0  0  0  0  0  0  0  0  0  0  0
   21.3102   19.8237   23.2746 C   0  0  0  0  0  0  0  0  0  0  0  0
   20.8610   19.6148   22.3007 H   0  0  0  0  0  0  0  0  0  0  0  0
   21.3540   20.9074   23.4089 H   0  0  0  0  0  0  0  0  0  0  0  0
   20.4493   19.1979   24.3884 C   0  0  0  0  0  0  0  0  0  0  0  0
   20.4171   18.1081   24.2631 H   0  0  0  0  0  0  0  0  0  0  0  0
   20.9277   19.3826   25.3593 H   0  0  0  0  0  0  0  0  0  0  0  0
   19.0102   19.7696   24.4231 C   0  0  0  0  0  0  0  0  0  0  0  0
   19.0590   20.8385   24.6729 H   0  0  0  0  0  0  0  0  0  0  0  0
   18.4566   19.2988   25.2464 H   0  0  0  0  0  0  0  0  0  0  0  0
   18.2123   19.6065   23.1010 C   0  0  0  0  0  0  0  0  0  0  0  0
   17.2073   20.0270   23.2441 H   0  0  0  0  0  0  0  0  0  0  0  0
   18.6778   20.2176   22.3160 H   0  0  0  0  0  0  0  0  0  0  0  0
   18.0763   18.1502   22.5880 C   0  0  0  0  0  0  0  0  0  0  0  0
   19.0643   17.7422   22.3360 H   0  0  0  0  0  0  0  0  0  0  0  0
   17.5075   18.1619   21.6477 H   0  0  0  0  0  0  0  0  0  0  0  0
   17.3638   17.2118   23.5884 C   0  0  0  0  0  0  0  0  0  0  0  0
   17.9507   17.0812   24.5060 H   0  0  0  0  0  0  0  0  0  0  0  0
   17.2166   16.2182   23.1459 H   0  0  0  0  0  0  0  0  0  0  0  0
   16.3771   17.6057   23.8645 H   0  0  0  0  0  0  0  0  0  0  0  0
   23.5080   19.9620   22.1200 C   0  0  0  0  0  0  0  0  0  0  0  0
   23.5226   21.0424   22.2795 H   0  0  0  0  0  0  0  0  0  0  0  0
   24.5299   19.5763   22.1133 H   0  0  0  0  0  0  0  0  0  0  0  0
   23.0218   19.7347   21.1687 H   0  0  0  0  0  0  0  0  0  0  0  0
  1  2  1  0  0  0  0
  1  3  1  0  0  0  0
  1  4  1  0  0  0  0
  4  5  1  0  0  0  0
  4  6  1  0  0  0  0
  4  7  1  0  0  0  0
  7  8  1  0  0  0  0
  7  9  1  0  0  0  0
  7 10  1  0  0  0  0
 10 11  1  0  0  0  0
 10 12  1  0  0  0  0
 10 13  1  0  0  0  0
 13 14  1  0  0  0  0
 13 15  1  0  0  0  0
 13 16  1  0  0  0  0
 16 17  1  0  0  0  0
 16 18  1  0  0  0  0
 16 19  1  0  0  0  0
 19 20  1  0  0  0  0
 19 21  1  0  0  0  0
 19 22  1  0  0  0  0
  1 23  1  0  0  0  0
 23 24  1  0  0  0  0
 23 25  1  0  0  0  0
 23 26  1  0  0  0  0
M  END
> <VConfSearch Rank>
778

> <Conf_Id>
71

> <Delta U+W>
1.096

> <U+W>
22.938

> <U>
72.455

> <W>
-49.517

> <W(PB)>
-51.795

> <W(SA)>
2.278

> <Valence>
2.908

> <Coulomb>
69.435

> <VdW>
0.112

> <VdW6>
-7.766

> <VdW12>
7.877

> <Bond>
0.233

> <Angle>
1.170

> <Pdih>
1.506

> <Idih>
0.000

> <Tether>
0.000

$$$$
VeraChem MOL file


 26 25  0  0  0  0  0  0  0  0999 V2000     
   22.1594   17.9495   23.5115 N   0  3  0  0  0  0  0  0  0  0  0  0
   22.0735   18.9226   23.1824 H   0  0  0  0  0  0  0  0  0  0  0  0
   22.8494   17.5108   22.8812 H   0  0  0  0  0  0  0  0  0  0  0  0
   20.8226   17.2370   23.3800 C   0  0  0  0  0  0  0  0  0  0  0  0
   20.9511   16.2186   23.7553 H   0  0  0  0  0  0  0  0  0  0  0  0
   20.5902   17.1730   22.3143 H   0  0  0  0  0  0  0  0  0  0  0  0
   19.6431   17.9137   24.1149 C   0  0  0  0  0  0  0  0  0  0  0  0
   18.7362   17.3190   23.9436 H   0  0  0  0  0  0  0  0  0  0  0  0
   19.8235   17.8826   25.1972 H   0  0  0  0  0  0  0  0  0  0  0  0
   19.3821   19.3787   23.6825 C   0  0  0  0  0  0  0  0  0  0  0  0
   20.2554   19.9996   23.9229 H   0  0  0  0  0  0  0  0  0  0  0  0
   18.5541   19.7694   24.2881 H   0  0  0  0  0  0  0  0  0  0  0  0
   19.0349   19.5187   22.1783 C   0  0  0  0  0  0  0  0  0  0  0  0
   19.8489   19.1011   21.5715 H   0  0  0  0  0  0  0  0  0  0  0  0
   18.1413   18.9225   21.9479 H   0  0  0  0  0  0  0  0  0  0  0  0
   18.8067   20.9836   21.7326 C   0  0  0  0  0  0  0  0  0  0  0  0
   18.6807   21.0035   20.6410 H   0  0  0  0  0  0  0  0  0  0  0  0
   19.7026   21.5824   21.9486 H   0  0  0  0  0  0  0  0  0  0  0  0
   17.5706   21.6424   22.3867 C   0  0  0  0  0  0  0  0  0  0  0  0
   17.7017   21.7621   23.4691 H   0  0  0  0  0  0  0  0  0  0  0  0
   16.6662   21.0450   22.2130 H   0  0  0  0  0  0  0  0  0  0  0  0
   17.3990   22.6408   21.9639 H   0  0  0  0  0  0  0  0  0  0  0  0
   22.6676   17.9071   24.9479 C   0  0  0  0  0  0  0  0  0  0  0  0
   23.6408   18.4004   24.9975 H   0  0  0  0  0  0  0  0  0  0  0  0
   21.9592   18.4261   25.5967 H   0  0  0  0  0  0  0  0  0  0  0  0
   22.7653   16.8660   25.2631 H   0  0  0  0  0  0  0  0  0  0  0  0
  1  2  1  0  0  0  0
  1  3  1  0  0  0  0
  1  4  1  0  0  0  0
  4  5  1  0  0  0  0
  4  6  1  0  0  0  0
  4  7  1  0  0  0  0
  7  8  1  0  0  0  0
  7  9  1  0  0  0  0
  7 10  1  0  0  0  0
 10 11  1  0  0  0  0
 10 12  1  0  0  0  0
 10 13  1  0  0  0  0
 13 14  1  0  0  0  0
 13 15  1  0  0  0  0
 13 16  1  0  0  0  0
 16 17  1  0  0  0  0
 16 18  1  0  0  0  0
 16 19  1  0  0  0  0
 19 20  1  0  0  0  0
 19 21  1  0  0  0  0
 19 22  1  0  0  0  0
  1 23  1  0  0  0  0
 23 24  1  0  0  0  0
 23 25  1  0  0  0  0
 23 26  1  0  0  0  0
M  END
> <VConfSearch Rank>
779

> <Conf_Id>
84

> <Delta U+W>
1.456

> <U+W>
23.298

> <U>
73.042

> <W>
-49.744

> <W(PB)>
-51.966

> <W(SA)>
2.222

> <Valence>
2.938

> <Coulomb>
69.625

> <VdW>
0.478

> <VdW6>
-8.182

> <VdW12>
8.660

> <Bond>
0.253

> <Angle>
1.038

> <Pdih>
1.647

> <Idih>
0.000

> <Tether>
0.000

$$$$
VeraChem MOL file


 26 25  0  0  0  0  0  0  0  0999 V2000     
   18.5740   20.1089   24.9167 N   0  3  0  0  0  0  0  0  0  0  0  0
   18.2924   19.9336   23.9404 H   0  0  0  0  0  0  0  0  0  0  0  0
   18.4822   21.1276   25.0530 H   0  0  0  0  0  0  0  0  0  0  0  0
   20.0140   19.6827   25.1246 C   0  0  0  0  0  0  0  0  0  0  0  0
   20.0700   18.6017   24.9762 H   0  0  0  0  0  0  0  0  0  0  0  0
   20.2758   19.8963   26.1641 H   0  0  0  0  0  0  0  0  0  0  0  0
   21.0157   20.3901   24.1885 C   0  0  0  0  0  0  0  0  0  0  0  0
   20.9887   21.4705   24.3833 H   0  0  0  0  0  0  0  0  0  0  0  0
   22.0306   20.0588   24.4452 H   0  0  0  0  0  0  0  0  0  0  0  0
   20.7611   20.1342   22.6815 C   0  0  0  0  0  0  0  0  0  0  0  0
   21.5138   20.6866   22.1020 H   0  0  0  0  0  0  0  0  0  0  0  0
   19.7877   20.5510   22.3902 H   0  0  0  0  0  0  0  0  0  0  0  0
   20.8251   18.6361   22.2979 C   0  0  0  0  0  0  0  0  0  0  0  0
   21.7912   18.2177   22.6127 H   0  0  0  0  0  0  0  0  0  0  0  0
   20.0467   18.0765   22.8337 H   0  0  0  0  0  0  0  0  0  0  0  0
   20.6442   18.4243   20.7783 C   0  0  0  0  0  0  0  0  0  0  0  0
   21.4247   18.9716   20.2313 H   0  0  0  0  0  0  0  0  0  0  0  0
   19.6799   18.8427   20.4571 H   0  0  0  0  0  0  0  0  0  0  0  0
   20.7055   16.9296   20.3976 C   0  0  0  0  0  0  0  0  0  0  0  0
   21.6724   16.4905   20.6759 H   0  0  0  0  0  0  0  0  0  0  0  0
   20.5758   16.7995   19.3153 H   0  0  0  0  0  0  0  0  0  0  0  0
   19.9138   16.3606   20.9022 H   0  0  0  0  0  0  0  0  0  0  0  0
   17.6659   19.3557   25.8785 C   0  0  0  0  0  0  0  0  0  0  0  0
   17.9644   19.5808   26.9047 H   0  0  0  0  0  0  0  0  0  0  0  0
   16.6327   19.6713   25.7173 H   0  0  0  0  0  0  0  0  0  0  0  0
   17.7572   18.2832   25.6933 H   0  0  0  0  0  0  0  0  0  0  0  0
  1  2  1  0  0  0  0
  1  3  1  0  0  0  0
  1  4  1  0  0  0  0
  4  5  1  0  0  0  0
  4  6  1  0  0  0  0
  4  7  1  0  0  0  0
  7  8  1  0  0  0  0
  7  9  1  0  0  0  0
  7 10  1  0  0  0  0
 10 11  1  0  0  0  0
 10 12  1  0  0  0  0
 10 13  1  0  0  0  0
 13 14  1  0  0  0  0
 13 15  1  0  0  0  0
 13 16  1  0  0  0  0
 16 17  1  0  0  0  0
 16 18  1  0  0  0  0
 16 19  1  0  0  0  0
 19 20  1  0  0  0  0
 19 21  1  0  0  0  0
 19 22  1  0  0  0  0
  1 23  1  0  0  0  0
 23 24  1  0  0  0  0
 23 25  1  0  0  0  0
 23 26  1  0  0  0  0
M  END
> <VConfSearch Rank>
780

> <Conf_Id>
73

> <Delta U+W>
0.884

> <U+W>
22.726

> <U>
71.905

> <W>
-49.179

> <W(PB)>
-51.494

> <W(SA)>
2.315

> <Valence>
2.125

> <Coulomb>
69.686

> <VdW>
0.093

> <VdW6>
-6.766

> <VdW12>
6.859

> <Bond>
0.169

> <Angle>
0.621

> <Pdih>
1.336

> <Idih>
0.000

> <Tether>
0.000

$$$$
VeraChem MOL file


 26 25  0  0  0  0  0  0  0  0999 V2000     
   17.7748   20.0989   25.3434 N   0  3  0  0  0  0  0  0  0  0  0  0
   18.3004   20.9201   25.6813 H   0  0  0  0  0  0  0  0  0  0  0  0
   17.9340   19.3622   26.0482 H   0  0  0  0  0  0  0  0  0  0  0  0
   18.3063   19.6562   23.9950 C   0  0  0  0  0  0  0  0  0  0  0  0
   18.1263   20.4647   23.2818 H   0  0  0  0  0  0  0  0  0  0  0  0
   17.7307   18.7829   23.6780 H   0  0  0  0  0  0  0  0  0  0  0  0
   19.8058   19.3084   24.0160 C   0  0  0  0  0  0  0  0  0  0  0  0
   20.3788   20.1834   24.3509 H   0  0  0  0  0  0  0  0  0  0  0  0
   19.9845   18.5073   24.7456 H   0  0  0  0  0  0  0  0  0  0  0  0
   20.3025   18.8634   22.6225 C   0  0  0  0  0  0  0  0  0  0  0  0
   20.1170   19.6654   21.8944 H   0  0  0  0  0  0  0  0  0  0  0  0
   19.7229   17.9913   22.2886 H   0  0  0  0  0  0  0  0  0  0  0  0
   21.8075   18.5112   22.6316 C   0  0  0  0  0  0  0  0  0  0  0  0
   22.3872   19.3831   22.9653 H   0  0  0  0  0  0  0  0  0  0  0  0
   21.9931   17.7092   23.3595 H   0  0  0  0  0  0  0  0  0  0  0  0
   22.3039   18.0661   21.2377 C   0  0  0  0  0  0  0  0  0  0  0  0
   22.1227   18.8661   20.5062 H   0  0  0  0  0  0  0  0  0  0  0  0
   21.7288   17.1924   20.9004 H   0  0  0  0  0  0  0  0  0  0  0  0
   23.8071   17.7154   21.2506 C   0  0  0  0  0  0  0  0  0  0  0  0
   24.1407   17.4019   20.2528 H   0  0  0  0  0  0  0  0  0  0  0  0
   24.0151   16.8939   21.9485 H   0  0  0  0  0  0  0  0  0  0  0  0
   24.4121   18.5807   21.5513 H   0  0  0  0  0  0  0  0  0  0  0  0
   16.2910   20.4223   25.2348 C   0  0  0  0  0  0  0  0  0  0  0  0
   15.7520   19.5302   24.9082 H   0  0  0  0  0  0  0  0  0  0  0  0
   15.9210   20.7396   26.2124 H   0  0  0  0  0  0  0  0  0  0  0  0
   16.1508   21.2260   24.5087 H   0  0  0  0  0  0  0  0  0  0  0  0
  1  2  1  0  0  0  0
  1  3  1  0  0  0  0
  1  4  1  0  0  0  0
  4  5  1  0  0  0  0
  4  6  1  0  0  0  0
  4  7  1  0  0  0  0
  7  8  1  0  0  0  0
  7  9  1  0  0  0  0
  7 10  1  0  0  0  0
 10 11  1  0  0  0  0
 10 12  1  0  0  0  0
 10 13  1  0  0  0  0
 13 14  1  0  0  0  0
 13 15  1  0  0  0  0
 13 16  1  0  0  0  0
 16 17  1  0  0  0  0
 16 18  1  0  0  0  0
 16 19  1  0  0  0  0
 19 20  1  0  0  0  0
 19 21  1  0  0  0  0
 19 22  1  0  0  0  0
  1 23  1  0  0  0  0
 23 24  1  0  0  0  0
 23 25  1  0  0  0  0
 23 26  1  0  0  0  0
M  END
> <VConfSearch Rank>
781

> <Conf_Id>
11

> <Delta U+W>
0.000

> <U+W>
21.842

> <U>
70.357

> <W>
-48.515

> <W(PB)>
-50.856

> <W(SA)>
2.341

> <Valence>
1.714

> <Coulomb>
68.480

> <VdW>
0.163

> <VdW6>
-5.268

> <VdW12>
5.431

> <Bond>
0.126

> <Angle>
0.350

> <Pdih>
1.238

> <Idih>
0.000

> <Tether>
0.000

$$$$
VeraChem MOL file


 26 25  0  0  0  0  0  0  0  0999 V2000     
   22.5084   18.6207   21.0347 N   0  3  0  0  0  0  0  0  0  0  0  0
   23.2633   19.1798   20.6063 H   0  0  0  0  0  0  0  0  0  0  0  0
   21.8782   18.3819   20.2534 H   0  0  0  0  0  0  0  0  0  0  0  0
   21.7734   19.4632   22.0639 C   0  0  0  0  0  0  0  0  0  0  0  0
   21.5313   20.4174   21.5890 H   0  0  0  0  0  0  0  0  0  0  0  0
   22.4608   19.6606   22.8903 H   0  0  0  0  0  0  0  0  0  0  0  0
   20.4750   18.8280   22.6019 C   0  0  0  0  0  0  0  0  0  0  0  0
   19.8115   18.5877   21.7607 H   0  0  0  0  0  0  0  0  0  0  0  0
   20.7067   17.8829   23.1096 H   0  0  0  0  0  0  0  0  0  0  0  0
   19.7489   19.7750   23.5829 C   0  0  0  0  0  0  0  0  0  0  0  0
   19.5186   20.7221   23.0751 H   0  0  0  0  0  0  0  0  0  0  0  0
   20.4184   20.0182   24.4198 H   0  0  0  0  0  0  0  0  0  0  0  0
   18.4444   19.1508   24.1289 C   0  0  0  0  0  0  0  0  0  0  0  0
   17.7750   18.9074   23.2921 H   0  0  0  0  0  0  0  0  0  0  0  0
   18.6745   18.2040   24.6370 H   0  0  0  0  0  0  0  0  0  0  0  0
   17.7185   20.0982   25.1100 C   0  0  0  0  0  0  0  0  0  0  0  0
   17.4838   21.0462   24.6056 H   0  0  0  0  0  0  0  0  0  0  0  0
   18.3833   20.3429   25.9503 H   0  0  0  0  0  0  0  0  0  0  0  0
   16.4165   19.4716   25.6531 C   0  0  0  0  0  0  0  0  0  0  0  0
   15.9157   20.1587   26.3475 H   0  0  0  0  0  0  0  0  0  0  0  0
   16.6227   18.5383   26.1932 H   0  0  0  0  0  0  0  0  0  0  0  0
   15.7162   19.2472   24.8380 H   0  0  0  0  0  0  0  0  0  0  0  0
   23.0916   17.3614   21.6658 C   0  0  0  0  0  0  0  0  0  0  0  0
   22.2808   16.7447   22.0587 H   0  0  0  0  0  0  0  0  0  0  0  0
   23.6419   16.8028   20.9053 H   0  0  0  0  0  0  0  0  0  0  0  0
   23.7673   17.6457   22.4754 H   0  0  0  0  0  0  0  0  0  0  0  0
  1  2  1  0  0  0  0
  1  3  1  0  0  0  0
  1  4  1  0  0  0  0
  4  5  1  0  0  0  0
  4  6  1  0  0  0  0
  4  7  1  0  0  0  0
  7  8  1  0  0  0  0
  7  9  1  0  0  0  0
  7 10  1  0  0  0  0
 10 11  1  0  0  0  0
 10 12  1  0  0  0  0
 10 13  1  0  0  0  0
 13 14  1  0  0  0  0
 13 15  1  0  0  0  0
 13 16  1  0  0  0  0
 16 17  1  0  0  0  0
 16 18  1  0  0  0  0
 16 19  1  0  0  0  0
 19 20  1  0  0  0  0
 19 21  1  0  0  0  0
 19 22  1  0  0  0  0
  1 23  1  0  0  0  0
 23 24  1  0  0  0  0
 23 25  1  0  0  0  0
 23 26  1  0  0  0  0
M  END
> <VConfSearch Rank>
782

> <Conf_Id>
102

> <Delta U+W>
0.121

> <U+W>
21.963

> <U>
70.745

> <W>
-48.782

> <W(PB)>
-51.111

> <W(SA)>
2.329

> <Valence>
1.993

> <Coulomb>
68.323

> <VdW>
0.429

> <VdW6>
-5.973

> <VdW12>
6.402

> <Bond>
0.161

> <Angle>
0.472

> <Pdih>
1.360

> <Idih>
0.000

> <Tether>
0.000

$$$$
VeraChem MOL file


 26 25  0  0  0  0  0  0  0  0999 V2000     
   20.6637   16.7673   20.8434 N   0  3  0  0  0  0  0  0  0  0  0  0
   21.6240   16.5556   21.1556 H   0  0  0  0  0  0  0  0  0  0  0  0
   20.7045   16.7293   19.8125 H   0  0  0  0  0  0  0  0  0  0  0  0
   20.2639   18.1653   21.2851 C   0  0  0  0  0  0  0  0  0  0  0  0
   19.2310   18.3351   20.9708 H   0  0  0  0  0  0  0  0  0  0  0  0
   20.9023   18.8706   20.7469 H   0  0  0  0  0  0  0  0  0  0  0  0
   20.4002   18.4218   22.7998 C   0  0  0  0  0  0  0  0  0  0  0  0
   19.7402   17.7407   23.3525 H   0  0  0  0  0  0  0  0  0  0  0  0
   21.4284   18.2008   23.1154 H   0  0  0  0  0  0  0  0  0  0  0  0
   20.0489   19.8828   23.1578 C   0  0  0  0  0  0  0  0  0  0  0  0
   19.0216   20.1018   22.8345 H   0  0  0  0  0  0  0  0  0  0  0  0
   20.7085   20.5647   22.6029 H   0  0  0  0  0  0  0  0  0  0  0  0
   20.1826   20.1538   24.6737 C   0  0  0  0  0  0  0  0  0  0  0  0
   19.5229   19.4724   25.2286 H   0  0  0  0  0  0  0  0  0  0  0  0
   21.2097   19.9346   24.9971 H   0  0  0  0  0  0  0  0  0  0  0  0
   19.8313   21.6152   25.0314 C   0  0  0  0  0  0  0  0  0  0  0  0
   18.8037   21.8389   24.7119 H   0  0  0  0  0  0  0  0  0  0  0  0
   20.4904   22.3010   24.4807 H   0  0  0  0  0  0  0  0  0  0  0  0
   19.9657   21.8820   26.5459 C   0  0  0  0  0  0  0  0  0  0  0  0
   19.2924   21.2342   27.1223 H   0  0  0  0  0  0  0  0  0  0  0  0
   19.7124   22.9241   26.7800 H   0  0  0  0  0  0  0  0  0  0  0  0
   20.9924   21.6998   26.8894 H   0  0  0  0  0  0  0  0  0  0  0  0
   19.6820   15.7221   21.3612 C   0  0  0  0  0  0  0  0  0  0  0  0
   18.6795   15.9615   21.0002 H   0  0  0  0  0  0  0  0  0  0  0  0
   19.9811   14.7381   20.9933 H   0  0  0  0  0  0  0  0  0  0  0  0
   19.6935   15.7243   22.4530 H   0  0  0  0  0  0  0  0  0  0  0  0
  1  2  1  0  0  0  0
  1  3  1  0  0  0  0
  1  4  1  0  0  0  0
  4  5  1  0  0  0  0
  4  6  1  0  0  0  0
  4  7  1  0  0  0  0
  7  8  1  0  0  0  0
  7  9  1  0  0  0  0
  7 10  1  0  0  0  0
 10 11  1  0  0  0  0
 10 12  1  0  0  0  0
 10 13  1  0  0  0  0
 13 14  1  0  0  0  0
 13 15  1  0  0  0  0
 13 16  1  0  0  0  0
 16 17  1  0  0  0  0
 16 18  1  0  0  0  0
 16 19  1  0  0  0  0
 19 20  1  0  0  0  0
 19 21  1  0  0  0  0
 19 22  1  0  0  0  0
  1 23  1  0  0  0  0
 23 24  1  0  0  0  0
 23 25  1  0  0  0  0
 23 26  1  0  0  0  0
M  END
> <VConfSearch Rank>
783

> <Conf_Id>
37

> <Delta U+W>
0.125

> <U+W>
21.967

> <U>
70.745

> <W>
-48.778

> <W(PB)>
-51.115

> <W(SA)>
2.337

> <Valence>
1.993

> <Coulomb>
68.323

> <VdW>
0.429

> <VdW6>
-5.973

> <VdW12>
6.403

> <Bond>
0.161

> <Angle>
0.472

> <Pdih>
1.360

> <Idih>
0.000

> <Tether>
0.000

$$$$
VeraChem MOL file


 26 25  0  0  0  0  0  0  0  0999 V2000     
   19.2269   18.1003   26.0419 N   0  3  0  0  0  0  0  0  0  0  0  0
   19.9010   18.4191   26.7552 H   0  0  0  0  0  0  0  0  0  0  0  0
   19.4463   17.1047   25.8824 H   0  0  0  0  0  0  0  0  0  0  0  0
   19.4099   18.8880   24.7603 C   0  0  0  0  0  0  0  0  0  0  0  0
   19.1790   19.9346   24.9741 H   0  0  0  0  0  0  0  0  0  0  0  0
   18.6829   18.5156   24.0348 H   0  0  0  0  0  0  0  0  0  0  0  0
   20.8323   18.7799   24.1774 C   0  0  0  0  0  0  0  0  0  0  0  0
   21.5550   19.1129   24.9342 H   0  0  0  0  0  0  0  0  0  0  0  0
   21.0649   17.7285   23.9620 H   0  0  0  0  0  0  0  0  0  0  0  0
   21.0219   19.6273   22.8969 C   0  0  0  0  0  0  0  0  0  0  0  0
   22.0812   19.5861   22.6118 H   0  0  0  0  0  0  0  0  0  0  0  0
   20.7996   20.6803   23.1183 H   0  0  0  0  0  0  0  0  0  0  0  0
   20.1455   19.1448   21.7128 C   0  0  0  0  0  0  0  0  0  0  0  0
   20.3828   18.0978   21.4786 H   0  0  0  0  0  0  0  0  0  0  0  0
   19.0878   19.1632   22.0069 H   0  0  0  0  0  0  0  0  0  0  0  0
   20.3046   20.0073   20.4370 C   0  0  0  0  0  0  0  0  0  0  0  0
   20.0573   21.0541   20.6625 H   0  0  0  0  0  0  0  0  0  0  0  0
   19.5692   19.6723   19.6921 H   0  0  0  0  0  0  0  0  0  0  0  0
   21.7158   19.9291   19.8109 C   0  0  0  0  0  0  0  0  0  0  0  0
   22.4748   20.3705   20.4684 H   0  0  0  0  0  0  0  0  0  0  0  0
   21.7450   20.4777   18.8606 H   0  0  0  0  0  0  0  0  0  0  0  0
   22.0002   18.8888   19.6061 H   0  0  0  0  0  0  0  0  0  0  0  0
   17.7996   18.2583   26.5476 C   0  0  0  0  0  0  0  0  0  0  0  0
   17.1068   17.8841   25.7907 H   0  0  0  0  0  0  0  0  0  0  0  0
   17.6813   17.6865   27.4708 H   0  0  0  0  0  0  0  0  0  0  0  0
   17.6018   19.3150   26.7404 H   0  0  0  0  0  0  0  0  0  0  0  0
  1  2  1  0  0  0  0
  1  3  1  0  0  0  0
  1  4  1  0  0  0  0
  4  5  1  0  0  0  0
  4  6  1  0  0  0  0
  4  7  1  0  0  0  0
  7  8  1  0  0  0  0
  7  9  1  0  0  0  0
  7 10  1  0  0  0  0
 10 11  1  0  0  0  0
 10 12  1  0  0  0  0
 10 13  1  0  0  0  0
 13 14  1  0  0  0  0
 13 15  1  0  0  0  0
 13 16  1  0  0  0  0
 16 17  1  0  0  0  0
 16 18  1  0  0  0  0
 16 19  1  0  0  0  0
 19 20  1  0  0  0  0
 19 21  1  0  0  0  0
 19 22  1  0  0  0  0
  1 23  1  0  0  0  0
 23 24  1  0  0  0  0
 23 25  1  0  0  0  0
 23 26  1  0  0  0  0
M  END
> <VConfSearch Rank>
784

> <Conf_Id>
137

> <Delta U+W>
1.038

> <U+W>
22.880

> <U>
71.810

> <W>
-48.930

> <W(PB)>
-51.257

> <W(SA)>
2.327

> <Valence>
2.568

> <Coulomb>
68.877

> <VdW>
0.364

> <VdW6>
-6.470

> <VdW12>
6.834

> <Bond>
0.191

> <Angle>
0.752

> <Pdih>
1.626

> <Idih>
0.000

> <Tether>
0.000

$$$$
VeraChem MOL file


 26 25  0  0  0  0  0  0  0  0999 V2000     
   17.6219   17.7568   24.3374 N   0  3  0  0  0  0  0  0  0  0  0  0
   17.9272   18.0539   25.2773 H   0  0  0  0  0  0  0  0  0  0  0  0
   17.9744   16.7933   24.2261 H   0  0  0  0  0  0  0  0  0  0  0  0
   18.2263   18.6600   23.2811 C   0  0  0  0  0  0  0  0  0  0  0  0
   17.8354   19.6684   23.4386 H   0  0  0  0  0  0  0  0  0  0  0  0
   17.8859   18.3075   22.3042 H   0  0  0  0  0  0  0  0  0  0  0  0
   19.7651   18.6903   23.3135 C   0  0  0  0  0  0  0  0  0  0  0  0
   20.0946   19.0273   24.3043 H   0  0  0  0  0  0  0  0  0  0  0  0
   20.1529   17.6728   23.1710 H   0  0  0  0  0  0  0  0  0  0  0  0
   20.3328   19.6224   22.2170 C   0  0  0  0  0  0  0  0  0  0  0  0
   19.9844   20.6506   22.3877 H   0  0  0  0  0  0  0  0  0  0  0  0
   19.9248   19.3170   21.2433 H   0  0  0  0  0  0  0  0  0  0  0  0
   21.8789   19.6063   22.1281 C   0  0  0  0  0  0  0  0  0  0  0  0
   22.2266   18.5811   21.9397 H   0  0  0  0  0  0  0  0  0  0  0  0
   22.1833   20.1994   21.2546 H   0  0  0  0  0  0  0  0  0  0  0  0
   22.5784   20.1713   23.3873 C   0  0  0  0  0  0  0  0  0  0  0  0
   22.3513   19.5458   24.2608 H   0  0  0  0  0  0  0  0  0  0  0  0
   22.1931   21.1769   23.6064 H   0  0  0  0  0  0  0  0  0  0  0  0
   24.1099   20.2392   23.2056 C   0  0  0  0  0  0  0  0  0  0  0  0
   24.5292   19.2428   23.0144 H   0  0  0  0  0  0  0  0  0  0  0  0
   24.5900   20.6390   24.1082 H   0  0  0  0  0  0  0  0  0  0  0  0
   24.3798   20.8908   22.3644 H   0  0  0  0  0  0  0  0  0  0  0  0
   16.1031   17.7848   24.2357 C   0  0  0  0  0  0  0  0  0  0  0  0
   15.8030   17.4353   23.2454 H   0  0  0  0  0  0  0  0  0  0  0  0
   15.6807   17.1305   25.0015 H   0  0  0  0  0  0  0  0  0  0  0  0
   15.7517   18.8075   24.3895 H   0  0  0  0  0  0  0  0  0  0  0  0
  1  2  1  0  0  0  0
  1  3  1  0  0  0  0
  1  4  1  0  0  0  0
  4  5  1  0  0  0  0
  4  6  1  0  0  0  0
  4  7  1  0  0  0  0
  7  8  1  0  0  0  0
  7  9  1  0  0  0  0
  7 10  1  0  0  0  0
 10 11  1  0  0  0  0
 10 12  1  0  0  0  0
 10 13  1  0  0  0  0
 13 14  1  0  0  0  0
 13 15  1  0  0  0  0
 13 16  1  0  0  0  0
 16 17  1  0  0  0  0
 16 18  1  0  0  0  0
 16 19  1  0  0  0  0
 19 20  1  0  0  0  0
 19 21  1  0  0  0  0
 19 22  1  0  0  0  0
  1 23  1  0  0  0  0
 23 24  1  0  0  0  0
 23 25  1  0  0  0  0
 23 26  1  0  0  0  0
M  END
> <VConfSearch Rank>
785

> <Conf_Id>
35

> <Delta U+W>
0.670

> <U+W>
22.512

> <U>
71.348

> <W>
-48.837

> <W(PB)>
-51.150

> <W(SA)>
2.313

> <Valence>
2.262

> <Coulomb>
68.807

> <VdW>
0.280

> <VdW6>
-5.915

> <VdW12>
6.195

> <Bond>
0.164

> <Angle>
0.622

> <Pdih>
1.475

> <Idih>
0.000

> <Tether>
0.000

$$$$
VeraChem MOL file


 26 25  0  0  0  0  0  0  0  0999 V2000     
   21.7526   17.9448   25.4397 N   0  3  0  0  0  0  0  0  0  0  0  0
   21.7027   16.9705   25.1036 H   0  0  0  0  0  0  0  0  0  0  0  0
   20.9464   18.0583   26.0737 H   0  0  0  0  0  0  0  0  0  0  0  0
   21.6408   18.9065   24.2737 C   0  0  0  0  0  0  0  0  0  0  0  0
   22.5061   18.7487   23.6251 H   0  0  0  0  0  0  0  0  0  0  0  0
   21.6896   19.9232   24.6717 H   0  0  0  0  0  0  0  0  0  0  0  0
   20.3452   18.7303   23.4610 C   0  0  0  0  0  0  0  0  0  0  0  0
   20.2927   17.7029   23.0769 H   0  0  0  0  0  0  0  0  0  0  0  0
   19.4845   18.8723   24.1265 H   0  0  0  0  0  0  0  0  0  0  0  0
   20.2795   19.7309   22.2830 C   0  0  0  0  0  0  0  0  0  0  0  0
   21.1901   19.6277   21.6764 H   0  0  0  0  0  0  0  0  0  0  0  0
   20.2824   20.7595   22.6697 H   0  0  0  0  0  0  0  0  0  0  0  0
   19.0508   19.5259   21.3625 C   0  0  0  0  0  0  0  0  0  0  0  0
   19.1489   20.1959   20.4971 H   0  0  0  0  0  0  0  0  0  0  0  0
   19.0573   18.5029   20.9615 H   0  0  0  0  0  0  0  0  0  0  0  0
   17.6988   19.8036   22.0619 C   0  0  0  0  0  0  0  0  0  0  0  0
   17.7109   20.8078   22.5081 H   0  0  0  0  0  0  0  0  0  0  0  0
   17.5430   19.0918   22.8833 H   0  0  0  0  0  0  0  0  0  0  0  0
   16.5155   19.6965   21.0763 C   0  0  0  0  0  0  0  0  0  0  0  0
   16.6139   20.4236   20.2597 H   0  0  0  0  0  0  0  0  0  0  0  0
   15.5650   19.8932   21.5890 H   0  0  0  0  0  0  0  0  0  0  0  0
   16.4588   18.6928   20.6353 H   0  0  0  0  0  0  0  0  0  0  0  0
   23.0572   18.1857   26.1866 C   0  0  0  0  0  0  0  0  0  0  0  0
   23.0727   19.2118   26.5608 H   0  0  0  0  0  0  0  0  0  0  0  0
   23.1253   17.4869   27.0234 H   0  0  0  0  0  0  0  0  0  0  0  0
   23.8958   18.0276   25.5049 H   0  0  0  0  0  0  0  0  0  0  0  0
  1  2  1  0  0  0  0
  1  3  1  0  0  0  0
  1  4  1  0  0  0  0
  4  5  1  0  0  0  0
  4  6  1  0  0  0  0
  4  7  1  0  0  0  0
  7  8  1  0  0  0  0
  7  9  1  0  0  0  0
  7 10  1  0  0  0  0
 10 11  1  0  0  0  0
 10 12  1  0  0  0  0
 10 13  1  0  0  0  0
 13 14  1  0  0  0  0
 13 15  1  0  0  0  0
 13 16  1  0  0  0  0
 16 17  1  0  0  0  0
 16 18  1  0  0  0  0
 16 19  1  0  0  0  0
 19 20  1  0  0  0  0
 19 21  1  0  0  0  0
 19 22  1  0  0  0  0
  1 23  1  0  0  0  0
 23 24  1  0  0  0  0
 23 25  1  0  0  0  0
 23 26  1  0  0  0  0
M  END
> <VConfSearch Rank>
786

> <Conf_Id>
36

> <Delta U+W>
0.662

> <U+W>
22.504

> <U>
71.348

> <W>
-48.844

> <W(PB)>
-51.157

> <W(SA)>
2.313

> <Valence>
2.262

> <Coulomb>
68.807

> <VdW>
0.280

> <VdW6>
-5.916

> <VdW12>
6.195

> <Bond>
0.164

> <Angle>
0.622

> <Pdih>
1.475

> <Idih>
0.000

> <Tether>
0.000

$$$$
VeraChem MOL file


 26 25  0  0  0  0  0  0  0  0999 V2000     
   22.2016   19.0294   25.4924 N   0  3  0  0  0  0  0  0  0  0  0  0
   21.6617   19.5777   26.1799 H   0  0  0  0  0  0  0  0  0  0  0  0
   23.0704   19.5640   25.3365 H   0  0  0  0  0  0  0  0  0  0  0  0
   21.4250   18.9043   24.1972 C   0  0  0  0  0  0  0  0  0  0  0  0
   20.5145   18.3386   24.4087 H   0  0  0  0  0  0  0  0  0  0  0  0
   22.0337   18.3286   23.4955 H   0  0  0  0  0  0  0  0  0  0  0  0
   21.0605   20.2646   23.5720 C   0  0  0  0  0  0  0  0  0  0  0  0
   20.4504   20.8439   24.2778 H   0  0  0  0  0  0  0  0  0  0  0  0
   21.9804   20.8408   23.4052 H   0  0  0  0  0  0  0  0  0  0  0  0
   20.3069   20.1222   22.2286 C   0  0  0  0  0  0  0  0  0  0  0  0
   20.9312   19.5660   21.5155 H   0  0  0  0  0  0  0  0  0  0  0  0
   20.1613   21.1229   21.7986 H   0  0  0  0  0  0  0  0  0  0  0  0
   18.9322   19.4256   22.3732 C   0  0  0  0  0  0  0  0  0  0  0  0
   19.0665   18.4051   22.7560 H   0  0  0  0  0  0  0  0  0  0  0  0
   18.3230   19.9650   23.1117 H   0  0  0  0  0  0  0  0  0  0  0  0
   18.1746   19.3656   21.0279 C   0  0  0  0  0  0  0  0  0  0  0  0
   18.7800   18.8277   20.2849 H   0  0  0  0  0  0  0  0  0  0  0  0
   18.0267   20.3830   20.6391 H   0  0  0  0  0  0  0  0  0  0  0  0
   16.8046   18.6694   21.1730 C   0  0  0  0  0  0  0  0  0  0  0  0
   16.9217   17.6368   21.5272 H   0  0  0  0  0  0  0  0  0  0  0  0
   16.2821   18.6370   20.2082 H   0  0  0  0  0  0  0  0  0  0  0  0
   16.1631   19.2044   21.8854 H   0  0  0  0  0  0  0  0  0  0  0  0
   22.5176   17.6455   26.0427 C   0  0  0  0  0  0  0  0  0  0  0  0
   23.1166   17.0968   25.3125 H   0  0  0  0  0  0  0  0  0  0  0  0
   23.0771   17.7499   26.9750 H   0  0  0  0  0  0  0  0  0  0  0  0
   21.5833   17.1119   26.2309 H   0  0  0  0  0  0  0  0  0  0  0  0
  1  2  1  0  0  0  0
  1  3  1  0  0  0  0
  1  4  1  0  0  0  0
  4  5  1  0  0  0  0
  4  6  1  0  0  0  0
  4  7  1  0  0  0  0
  7  8  1  0  0  0  0
  7  9  1  0  0  0  0
  7 10  1  0  0  0  0
 10 11  1  0  0  0  0
 10 12  1  0  0  0  0
 10 13  1  0  0  0  0
 13 14  1  0  0  0  0
 13 15  1  0  0  0  0
 13 16  1  0  0  0  0
 16 17  1  0  0  0  0
 16 18  1  0  0  0  0
 16 19  1  0  0  0  0
 19 20  1  0  0  0  0
 19 21  1  0  0  0  0
 19 22  1  0  0  0  0
  1 23  1  0  0  0  0
 23 24  1  0  0  0  0
 23 25  1  0  0  0  0
 23 26  1  0  0  0  0
M  END
> <VConfSearch Rank>
787

> <Conf_Id>
46

> <Delta U+W>
0.496

> <U+W>
22.338

> <U>
71.138

> <W>
-48.799

> <W(PB)>
-51.136

> <W(SA)>
2.337

> <Valence>
2.016

> <Coulomb>
68.932

> <VdW>
0.190

> <VdW6>
-5.902

> <VdW12>
6.092

> <Bond>
0.149

> <Angle>
0.477

> <Pdih>
1.390

> <Idih>
0.000

> <Tether>
0.000

$$$$
VeraChem MOL file


 26 25  0  0  0  0  0  0  0  0999 V2000     
   22.3706   20.7110   24.1040 N   0  3  0  0  0  0  0  0  0  0  0  0
   22.1977   21.5258   24.7132 H   0  0  0  0  0  0  0  0  0  0  0  0
   22.5743   21.1037   23.1718 H   0  0  0  0  0  0  0  0  0  0  0  0
   21.1375   19.8323   24.0433 C   0  0  0  0  0  0  0  0  0  0  0  0
   20.9507   19.4467   25.0487 H   0  0  0  0  0  0  0  0  0  0  0  0
   21.3623   18.9886   23.3866 H   0  0  0  0  0  0  0  0  0  0  0  0
   19.8868   20.5728   23.5318 C   0  0  0  0  0  0  0  0  0  0  0  0
   19.6974   21.4433   24.1739 H   0  0  0  0  0  0  0  0  0  0  0  0
   20.0750   20.9619   22.5222 H   0  0  0  0  0  0  0  0  0  0  0  0
   18.6260   19.6764   23.5167 C   0  0  0  0  0  0  0  0  0  0  0  0
   17.7608   20.2904   23.2305 H   0  0  0  0  0  0  0  0  0  0  0  0
   18.4243   19.3108   24.5332 H   0  0  0  0  0  0  0  0  0  0  0  0
   18.7434   18.4779   22.5442 C   0  0  0  0  0  0  0  0  0  0  0  0
   18.9782   18.8450   21.5355 H   0  0  0  0  0  0  0  0  0  0  0  0
   19.5750   17.8279   22.8477 H   0  0  0  0  0  0  0  0  0  0  0  0
   17.4421   17.6463   22.4983 C   0  0  0  0  0  0  0  0  0  0  0  0
   16.6036   18.2852   22.1870 H   0  0  0  0  0  0  0  0  0  0  0  0
   17.2019   17.2771   23.5052 H   0  0  0  0  0  0  0  0  0  0  0  0
   17.5609   16.4504   21.5294 C   0  0  0  0  0  0  0  0  0  0  0  0
   17.7676   16.7901   20.5062 H   0  0  0  0  0  0  0  0  0  0  0  0
   16.6276   15.8728   21.5102 H   0  0  0  0  0  0  0  0  0  0  0  0
   18.3694   15.7734   21.8347 H   0  0  0  0  0  0  0  0  0  0  0  0
   23.5566   19.9046   24.6147 C   0  0  0  0  0  0  0  0  0  0  0  0
   24.4377   20.5490   24.6537 H   0  0  0  0  0  0  0  0  0  0  0  0
   23.3308   19.5276   25.6146 H   0  0  0  0  0  0  0  0  0  0  0  0
   23.7410   19.0683   23.9367 H   0  0  0  0  0  0  0  0  0  0  0  0
  1  2  1  0  0  0  0
  1  3  1  0  0  0  0
  1  4  1  0  0  0  0
  4  5  1  0  0  0  0
  4  6  1  0  0  0  0
  4  7  1  0  0  0  0
  7  8  1  0  0  0  0
  7  9  1  0  0  0  0
  7 10  1  0  0  0  0
 10 11  1  0  0  0  0
 10 12  1  0  0  0  0
 10 13  1  0  0  0  0
 13 14  1  0  0  0  0
 13 15  1  0  0  0  0
 13 16  1  0  0  0  0
 16 17  1  0  0  0  0
 16 18  1  0  0  0  0
 16 19  1  0  0  0  0
 19 20  1  0  0  0  0
 19 21  1  0  0  0  0
 19 22  1  0  0  0  0
  1 23  1  0  0  0  0
 23 24  1  0  0  0  0
 23 25  1  0  0  0  0
 23 26  1  0  0  0  0
M  END
> <VConfSearch Rank>
788

> <Conf_Id>
45

> <Delta U+W>
0.471

> <U+W>
22.313

> <U>
71.138

> <W>
-48.825

> <W(PB)>
-51.169

> <W(SA)>
2.344

> <Valence>
2.016

> <Coulomb>
68.932

> <VdW>
0.190

> <VdW6>
-5.902

> <VdW12>
6.092

> <Bond>
0.149

> <Angle>
0.477

> <Pdih>
1.390

> <Idih>
0.000

> <Tether>
0.000

$$$$
VeraChem MOL file


 26 25  0  0  0  0  0  0  0  0999 V2000     
   20.5735   16.8493   24.5014 N   0  3  0  0  0  0  0  0  0  0  0  0
   21.4054   17.1054   23.9486 H   0  0  0  0  0  0  0  0  0  0  0  0
   19.9172   16.4197   23.8310 H   0  0  0  0  0  0  0  0  0  0  0  0
   19.9544   18.0900   25.1155 C   0  0  0  0  0  0  0  0  0  0  0  0
   20.6801   18.5204   25.8102 H   0  0  0  0  0  0  0  0  0  0  0  0
   19.0796   17.7730   25.6890 H   0  0  0  0  0  0  0  0  0  0  0  0
   19.5311   19.1531   24.0829 C   0  0  0  0  0  0  0  0  0  0  0  0
   18.8019   18.7117   23.3920 H   0  0  0  0  0  0  0  0  0  0  0  0
   19.0130   19.9638   24.6122 H   0  0  0  0  0  0  0  0  0  0  0  0
   20.7353   19.7368   23.3021 C   0  0  0  0  0  0  0  0  0  0  0  0
   21.2089   18.9526   22.6964 H   0  0  0  0  0  0  0  0  0  0  0  0
   21.4956   20.0752   24.0199 H   0  0  0  0  0  0  0  0  0  0  0  0
   20.3585   20.9291   22.3885 C   0  0  0  0  0  0  0  0  0  0  0  0
   19.9060   21.7278   22.9924 H   0  0  0  0  0  0  0  0  0  0  0  0
   21.2816   21.3492   21.9655 H   0  0  0  0  0  0  0  0  0  0  0  0
   19.4048   20.5453   21.2321 C   0  0  0  0  0  0  0  0  0  0  0  0
   18.4449   20.1935   21.6328 H   0  0  0  0  0  0  0  0  0  0  0  0
   19.8344   19.7132   20.6570 H   0  0  0  0  0  0  0  0  0  0  0  0
   19.1456   21.7388   20.2880 C   0  0  0  0  0  0  0  0  0  0  0  0
   18.6878   22.5775   20.8285 H   0  0  0  0  0  0  0  0  0  0  0  0
   18.4657   21.4502   19.4759 H   0  0  0  0  0  0  0  0  0  0  0  0
   20.0799   22.0941   19.8340 H   0  0  0  0  0  0  0  0  0  0  0  0
   20.9445   15.8587   25.5962 C   0  0  0  0  0  0  0  0  0  0  0  0
   20.0440   15.5786   26.1471 H   0  0  0  0  0  0  0  0  0  0  0  0
   21.3893   14.9711   25.1407 H   0  0  0  0  0  0  0  0  0  0  0  0
   21.6630   16.3250   26.2740 H   0  0  0  0  0  0  0  0  0  0  0  0
  1  2  1  0  0  0  0
  1  3  1  0  0  0  0
  1  4  1  0  0  0  0
  4  5  1  0  0  0  0
  4  6  1  0  0  0  0
  4  7  1  0  0  0  0
  7  8  1  0  0  0  0
  7  9  1  0  0  0  0
  7 10  1  0  0  0  0
 10 11  1  0  0  0  0
 10 12  1  0  0  0  0
 10 13  1  0  0  0  0
 13 14  1  0  0  0  0
 13 15  1  0  0  0  0
 13 16  1  0  0  0  0
 16 17  1  0  0  0  0
 16 18  1  0  0  0  0
 16 19  1  0  0  0  0
 19 20  1  0  0  0  0
 19 21  1  0  0  0  0
 19 22  1  0  0  0  0
  1 23  1  0  0  0  0
 23 24  1  0  0  0  0
 23 25  1  0  0  0  0
 23 26  1  0  0  0  0
M  END
> <VConfSearch Rank>
789

> <Conf_Id>
143

> <Delta U+W>
0.915

> <U+W>
22.757

> <U>
71.994

> <W>
-49.237

> <W(PB)>
-51.537

> <W(SA)>
2.300

> <Valence>
2.376

> <Coulomb>
69.315

> <VdW>
0.303

> <VdW6>
-6.508

> <VdW12>
6.810

> <Bond>
0.182

> <Angle>
0.660

> <Pdih>
1.534

> <Idih>
0.000

> <Tether>
0.000

$$$$
VeraChem MOL file


 26 25  0  0  0  0  0  0  0  0999 V2000     
   18.4910   20.3459   21.6419 N   0  3  0  0  0  0  0  0  0  0  0  0
   19.2237   21.0529   21.8039 H   0  0  0  0  0  0  0  0  0  0  0  0
   17.7712   20.5245   22.3594 H   0  0  0  0  0  0  0  0  0  0  0  0
   19.0636   18.9520   21.8132 C   0  0  0  0  0  0  0  0  0  0  0  0
   19.8268   18.8031   21.0451 H   0  0  0  0  0  0  0  0  0  0  0  0
   18.2541   18.2404   21.6318 H   0  0  0  0  0  0  0  0  0  0  0  0
   19.6704   18.6890   23.2057 C   0  0  0  0  0  0  0  0  0  0  0  0
   18.9104   18.8684   23.9776 H   0  0  0  0  0  0  0  0  0  0  0  0
   19.9365   17.6263   23.2592 H   0  0  0  0  0  0  0  0  0  0  0  0
   20.9278   19.5488   23.4830 C   0  0  0  0  0  0  0  0  0  0  0  0
   20.6885   20.6087   23.3262 H   0  0  0  0  0  0  0  0  0  0  0  0
   21.7073   19.3003   22.7494 H   0  0  0  0  0  0  0  0  0  0  0  0
   21.5026   19.3977   24.9154 C   0  0  0  0  0  0  0  0  0  0  0  0
   22.3569   20.0835   25.0021 H   0  0  0  0  0  0  0  0  0  0  0  0
   20.7691   19.7462   25.6556 H   0  0  0  0  0  0  0  0  0  0  0  0
   21.9920   17.9711   25.2758 C   0  0  0  0  0  0  0  0  0  0  0  0
   22.8814   18.0575   25.9157 H   0  0  0  0  0  0  0  0  0  0  0  0
   22.3217   17.4400   24.3720 H   0  0  0  0  0  0  0  0  0  0  0  0
   20.9376   17.1342   26.0377 C   0  0  0  0  0  0  0  0  0  0  0  0
   20.0242   16.9866   25.4512 H   0  0  0  0  0  0  0  0  0  0  0  0
   20.6576   17.6216   26.9806 H   0  0  0  0  0  0  0  0  0  0  0  0
   21.3389   16.1424   26.2830 H   0  0  0  0  0  0  0  0  0  0  0  0
   17.9034   20.4970   20.2457 C   0  0  0  0  0  0  0  0  0  0  0  0
   17.1090   19.7600   20.1088 H   0  0  0  0  0  0  0  0  0  0  0  0
   17.4952   21.5041   20.1358 H   0  0  0  0  0  0  0  0  0  0  0  0
   18.6901   20.3350   19.5056 H   0  0  0  0  0  0  0  0  0  0  0  0
  1  2  1  0  0  0  0
  1  3  1  0  0  0  0
  1  4  1  0  0  0  0
  4  5  1  0  0  0  0
  4  6  1  0  0  0  0
  4  7  1  0  0  0  0
  7  8  1  0  0  0  0
  7  9  1  0  0  0  0
  7 10  1  0  0  0  0
 10 11  1  0  0  0  0
 10 12  1  0  0  0  0
 10 13  1  0  0  0  0
 13 14  1  0  0  0  0
 13 15  1  0  0  0  0
 13 16  1  0  0  0  0
 16 17  1  0  0  0  0
 16 18  1  0  0  0  0
 16 19  1  0  0  0  0
 19 20  1  0  0  0  0
 19 21  1  0  0  0  0
 19 22  1  0  0  0  0
  1 23  1  0  0  0  0
 23 24  1  0  0  0  0
 23 25  1  0  0  0  0
 23 26  1  0  0  0  0
M  END
> <VConfSearch Rank>
790

> <Conf_Id>
76

> <Delta U+W>
3.468

> <U+W>
25.310

> <U>
74.594

> <W>
-49.283

> <W(PB)>
-51.537

> <W(SA)>
2.253

> <Valence>
4.886

> <Coulomb>
69.332

> <VdW>
0.376

> <VdW6>
-7.329

> <VdW12>
7.705

> <Bond>
0.232

> <Angle>
1.251

> <Pdih>
3.403

> <Idih>
0.000

> <Tether>
0.000

$$$$
VeraChem MOL file


 26 25  0  0  0  0  0  0  0  0999 V2000     
   20.8524   21.6448   22.6696 N   0  3  0  0  0  0  0  0  0  0  0  0
   20.8503   21.8059   23.6888 H   0  0  0  0  0  0  0  0  0  0  0  0
   19.9606   22.0356   22.3278 H   0  0  0  0  0  0  0  0  0  0  0  0
   20.9198   20.1598   22.3746 C   0  0  0  0  0  0  0  0  0  0  0  0
   21.8723   19.7848   22.7576 H   0  0  0  0  0  0  0  0  0  0  0  0
   20.9111   20.0329   21.2891 H   0  0  0  0  0  0  0  0  0  0  0  0
   19.7608   19.3615   22.9987 C   0  0  0  0  0  0  0  0  0  0  0  0
   19.7613   19.5147   24.0836 H   0  0  0  0  0  0  0  0  0  0  0  0
   18.8066   19.7542   22.6229 H   0  0  0  0  0  0  0  0  0  0  0  0
   19.8686   17.8551   22.6604 C   0  0  0  0  0  0  0  0  0  0  0  0
   20.8434   17.4597   22.9780 H   0  0  0  0  0  0  0  0  0  0  0  0
   19.8401   17.7483   21.5670 H   0  0  0  0  0  0  0  0  0  0  0  0
   18.7243   17.0009   23.2667 C   0  0  0  0  0  0  0  0  0  0  0  0
   17.8077   17.5997   23.3576 H   0  0  0  0  0  0  0  0  0  0  0  0
   18.4833   16.1984   22.5557 H   0  0  0  0  0  0  0  0  0  0  0  0
   19.0616   16.3332   24.6247 C   0  0  0  0  0  0  0  0  0  0  0  0
   19.9165   15.6541   24.4992 H   0  0  0  0  0  0  0  0  0  0  0  0
   18.2131   15.7011   24.9219 H   0  0  0  0  0  0  0  0  0  0  0  0
   19.3613   17.3279   25.7676 C   0  0  0  0  0  0  0  0  0  0  0  0
   18.5540   18.0638   25.8750 H   0  0  0  0  0  0  0  0  0  0  0  0
   20.3029   17.8628   25.5939 H   0  0  0  0  0  0  0  0  0  0  0  0
   19.4594   16.7958   26.7226 H   0  0  0  0  0  0  0  0  0  0  0  0
   22.0310   22.3560   22.0193 C   0  0  0  0  0  0  0  0  0  0  0  0
   22.9618   21.9490   22.4203 H   0  0  0  0  0  0  0  0  0  0  0  0
   21.9935   22.1991   20.9390 H   0  0  0  0  0  0  0  0  0  0  0  0
   21.9704   23.4242   22.2391 H   0  0  0  0  0  0  0  0  0  0  0  0
  1  2  1  0  0  0  0
  1  3  1  0  0  0  0
  1  4  1  0  0  0  0
  4  5  1  0  0  0  0
  4  6  1  0  0  0  0
  4  7  1  0  0  0  0
  7  8  1  0  0  0  0
  7  9  1  0  0  0  0
  7 10  1  0  0  0  0
 10 11  1  0  0  0  0
 10 12  1  0  0  0  0
 10 13  1  0  0  0  0
 13 14  1  0  0  0  0
 13 15  1  0  0  0  0
 13 16  1  0  0  0  0
 16 17  1  0  0  0  0
 16 18  1  0  0  0  0
 16 19  1  0  0  0  0
 19 20  1  0  0  0  0
 19 21  1  0  0  0  0
 19 22  1  0  0  0  0
  1 23  1  0  0  0  0
 23 24  1  0  0  0  0
 23 25  1  0  0  0  0
 23 26  1  0  0  0  0
M  END
> <VConfSearch Rank>
791

> <Conf_Id>
123

> <Delta U+W>
3.101

> <U+W>
24.943

> <U>
74.070

> <W>
-49.127

> <W(PB)>
-51.421

> <W(SA)>
2.295

> <Valence>
4.690

> <Coulomb>
69.115

> <VdW>
0.266

> <VdW6>
-6.809

> <VdW12>
7.075

> <Bond>
0.212

> <Angle>
1.133

> <Pdih>
3.345

> <Idih>
0.000

> <Tether>
0.000

$$$$
VeraChem MOL file


 26 25  0  0  0  0  0  0  0  0999 V2000     
   19.4562   18.1828   25.7023 N   0  3  0  0  0  0  0  0  0  0  0  0
   20.3743   18.0112   26.1409 H   0  0  0  0  0  0  0  0  0  0  0  0
   19.2960   17.3815   25.0736 H   0  0  0  0  0  0  0  0  0  0  0  0
   19.4921   19.4719   24.9043 C   0  0  0  0  0  0  0  0  0  0  0  0
   19.6626   20.2903   25.6084 H   0  0  0  0  0  0  0  0  0  0  0  0
   18.5091   19.6137   24.4481 H   0  0  0  0  0  0  0  0  0  0  0  0
   20.5796   19.5031   23.8123 C   0  0  0  0  0  0  0  0  0  0  0  0
   20.5952   20.5071   23.3738 H   0  0  0  0  0  0  0  0  0  0  0  0
   21.5645   19.3544   24.2744 H   0  0  0  0  0  0  0  0  0  0  0  0
   20.3488   18.4389   22.7090 C   0  0  0  0  0  0  0  0  0  0  0  0
   19.3290   18.5187   22.3077 H   0  0  0  0  0  0  0  0  0  0  0  0
   20.4195   17.4421   23.1646 H   0  0  0  0  0  0  0  0  0  0  0  0
   21.3816   18.5161   21.5542 C   0  0  0  0  0  0  0  0  0  0  0  0
   22.3399   18.9060   21.9243 H   0  0  0  0  0  0  0  0  0  0  0  0
   21.5913   17.4927   21.2133 H   0  0  0  0  0  0  0  0  0  0  0  0
   20.9150   19.3309   20.3205 C   0  0  0  0  0  0  0  0  0  0  0  0
   20.0119   18.8710   19.8955 H   0  0  0  0  0  0  0  0  0  0  0  0
   21.6876   19.2579   19.5423 H   0  0  0  0  0  0  0  0  0  0  0  0
   20.6424   20.8236   20.6085 C   0  0  0  0  0  0  0  0  0  0  0  0
   21.5076   21.2994   21.0879 H   0  0  0  0  0  0  0  0  0  0  0  0
   19.7676   20.9513   21.2580 H   0  0  0  0  0  0  0  0  0  0  0  0
   20.4378   21.3630   19.6746 H   0  0  0  0  0  0  0  0  0  0  0  0
   18.3638   18.2580   26.7599 C   0  0  0  0  0  0  0  0  0  0  0  0
   17.3993   18.4080   26.2699 H   0  0  0  0  0  0  0  0  0  0  0  0
   18.3486   17.3242   27.3264 H   0  0  0  0  0  0  0  0  0  0  0  0
   18.5715   19.0937   27.4318 H   0  0  0  0  0  0  0  0  0  0  0  0
  1  2  1  0  0  0  0
  1  3  1  0  0  0  0
  1  4  1  0  0  0  0
  4  5  1  0  0  0  0
  4  6  1  0  0  0  0
  4  7  1  0  0  0  0
  7  8  1  0  0  0  0
  7  9  1  0  0  0  0
  7 10  1  0  0  0  0
 10 11  1  0  0  0  0
 10 12  1  0  0  0  0
 10 13  1  0  0  0  0
 13 14  1  0  0  0  0
 13 15  1  0  0  0  0
 13 16  1  0  0  0  0
 16 17  1  0  0  0  0
 16 18  1  0  0  0  0
 16 19  1  0  0  0  0
 19 20  1  0  0  0  0
 19 21  1  0  0  0  0
 19 22  1  0  0  0  0
  1 23  1  0  0  0  0
 23 24  1  0  0  0  0
 23 25  1  0  0  0  0
 23 26  1  0  0  0  0
M  END
> <VConfSearch Rank>
792

> <Conf_Id>
111

> <Delta U+W>
3.383

> <U+W>
25.225

> <U>
74.516

> <W>
-49.292

> <W(PB)>
-51.558

> <W(SA)>
2.266

> <Valence>
4.842

> <Coulomb>
69.333

> <VdW>
0.342

> <VdW6>
-7.369

> <VdW12>
7.711

> <Bond>
0.232

> <Angle>
1.153

> <Pdih>
3.457

> <Idih>
0.000

> <Tether>
0.000

$$$$
VeraChem MOL file


 26 25  0  0  0  0  0  0  0  0999 V2000     
   21.8769   17.9475   24.2707 N   0  3  0  0  0  0  0  0  0  0  0  0
   22.5873   18.5473   24.7182 H   0  0  0  0  0  0  0  0  0  0  0  0
   21.8488   18.2413   23.2828 H   0  0  0  0  0  0  0  0  0  0  0  0
   20.5234   18.1721   24.9160 C   0  0  0  0  0  0  0  0  0  0  0  0
   20.5990   17.8602   25.9608 H   0  0  0  0  0  0  0  0  0  0  0  0
   19.8013   17.5199   24.4195 H   0  0  0  0  0  0  0  0  0  0  0  0
   20.0364   19.6347   24.8525 C   0  0  0  0  0  0  0  0  0  0  0  0
   19.0775   19.7092   25.3824 H   0  0  0  0  0  0  0  0  0  0  0  0
   20.7405   20.2710   25.4050 H   0  0  0  0  0  0  0  0  0  0  0  0
   19.8688   20.1865   23.4139 C   0  0  0  0  0  0  0  0  0  0  0  0
   20.8400   20.1988   22.9018 H   0  0  0  0  0  0  0  0  0  0  0  0
   19.5498   21.2343   23.4873 H   0  0  0  0  0  0  0  0  0  0  0  0
   18.8410   19.3898   22.5702 C   0  0  0  0  0  0  0  0  0  0  0  0
   19.1465   18.3366   22.5157 H   0  0  0  0  0  0  0  0  0  0  0  0
   17.8627   19.4021   23.0701 H   0  0  0  0  0  0  0  0  0  0  0  0
   18.6880   19.9201   21.1238 C   0  0  0  0  0  0  0  0  0  0  0  0
   18.0350   19.2347   20.5654 H   0  0  0  0  0  0  0  0  0  0  0  0
   19.6615   19.8989   20.6145 H   0  0  0  0  0  0  0  0  0  0  0  0
   18.0921   21.3445   21.0483 C   0  0  0  0  0  0  0  0  0  0  0  0
   18.7698   22.0898   21.4824 H   0  0  0  0  0  0  0  0  0  0  0  0
   17.1329   21.4002   21.5792 H   0  0  0  0  0  0  0  0  0  0  0  0
   17.9140   21.6311   20.0038 H   0  0  0  0  0  0  0  0  0  0  0  0
   22.2675   16.4805   24.3813 C   0  0  0  0  0  0  0  0  0  0  0  0
   23.2427   16.3330   23.9120 H   0  0  0  0  0  0  0  0  0  0  0  0
   22.3197   16.2015   25.4360 H   0  0  0  0  0  0  0  0  0  0  0  0
   21.5176   15.8699   23.8736 H   0  0  0  0  0  0  0  0  0  0  0  0
  1  2  1  0  0  0  0
  1  3  1  0  0  0  0
  1  4  1  0  0  0  0
  4  5  1  0  0  0  0
  4  6  1  0  0  0  0
  4  7  1  0  0  0  0
  7  8  1  0  0  0  0
  7  9  1  0  0  0  0
  7 10  1  0  0  0  0
 10 11  1  0  0  0  0
 10 12  1  0  0  0  0
 10 13  1  0  0  0  0
 13 14  1  0  0  0  0
 13 15  1  0  0  0  0
 13 16  1  0  0  0  0
 16 17  1  0  0  0  0
 16 18  1  0  0  0  0
 16 19  1  0  0  0  0
 19 20  1  0  0  0  0
 19 21  1  0  0  0  0
 19 22  1  0  0  0  0
  1 23  1  0  0  0  0
 23 24  1  0  0  0  0
 23 25  1  0  0  0  0
 23 26  1  0  0  0  0
M  END
> <VConfSearch Rank>
793

> <Conf_Id>
126

> <Delta U+W>
1.519

> <U+W>
23.361

> <U>
72.579

> <W>
-49.218

> <W(PB)>
-51.496

> <W(SA)>
2.279

> <Valence>
2.678

> <Coulomb>
69.622

> <VdW>
0.279

> <VdW6>
-7.328

> <VdW12>
7.608

> <Bond>
0.212

> <Angle>
0.911

> <Pdih>
1.555

> <Idih>
0.000

> <Tether>
0.000

$$$$
VeraChem MOL file


 26 25  0  0  0  0  0  0  0  0999 V2000     
   18.0054   20.1961   22.6647 N   0  3  0  0  0  0  0  0  0  0  0  0
   18.0597   19.3666   23.2747 H   0  0  0  0  0  0  0  0  0  0  0  0
   17.5824   19.8652   21.7837 H   0  0  0  0  0  0  0  0  0  0  0  0
   19.3968   20.7385   22.4035 C   0  0  0  0  0  0  0  0  0  0  0  0
   19.8090   21.0809   23.3556 H   0  0  0  0  0  0  0  0  0  0  0  0
   19.2960   21.6062   21.7467 H   0  0  0  0  0  0  0  0  0  0  0  0
   20.3544   19.7160   21.7572 C   0  0  0  0  0  0  0  0  0  0  0  0
   19.9578   19.4246   20.7756 H   0  0  0  0  0  0  0  0  0  0  0  0
   21.3164   20.2088   21.5635 H   0  0  0  0  0  0  0  0  0  0  0  0
   20.5951   18.4441   22.6096 C   0  0  0  0  0  0  0  0  0  0  0  0
   21.2619   17.7789   22.0459 H   0  0  0  0  0  0  0  0  0  0  0  0
   19.6530   17.8947   22.7371 H   0  0  0  0  0  0  0  0  0  0  0  0
   21.2171   18.7474   23.9967 C   0  0  0  0  0  0  0  0  0  0  0  0
   22.1736   19.2722   23.8667 H   0  0  0  0  0  0  0  0  0  0  0  0
   20.5627   19.4318   24.5524 H   0  0  0  0  0  0  0  0  0  0  0  0
   21.4359   17.4835   24.8636 C   0  0  0  0  0  0  0  0  0  0  0  0
   20.4801   16.9606   25.0073 H   0  0  0  0  0  0  0  0  0  0  0  0
   21.7676   17.7962   25.8636 H   0  0  0  0  0  0  0  0  0  0  0  0
   22.4806   16.5063   24.2776 C   0  0  0  0  0  0  0  0  0  0  0  0
   23.4366   17.0135   24.0935 H   0  0  0  0  0  0  0  0  0  0  0  0
   22.1372   16.0655   23.3337 H   0  0  0  0  0  0  0  0  0  0  0  0
   22.6684   15.6810   24.9766 H   0  0  0  0  0  0  0  0  0  0  0  0
   17.1399   21.2733   23.3032 C   0  0  0  0  0  0  0  0  0  0  0  0
   17.5916   21.5838   24.2480 H   0  0  0  0  0  0  0  0  0  0  0  0
   17.0730   22.1279   22.6264 H   0  0  0  0  0  0  0  0  0  0  0  0
   16.1419   20.8691   23.4866 H   0  0  0  0  0  0  0  0  0  0  0  0
  1  2  1  0  0  0  0
  1  3  1  0  0  0  0
  1  4  1  0  0  0  0
  4  5  1  0  0  0  0
  4  6  1  0  0  0  0
  4  7  1  0  0  0  0
  7  8  1  0  0  0  0
  7  9  1  0  0  0  0
  7 10  1  0  0  0  0
 10 11  1  0  0  0  0
 10 12  1  0  0  0  0
 10 13  1  0  0  0  0
 13 14  1  0  0  0  0
 13 15  1  0  0  0  0
 13 16  1  0  0  0  0
 16 17  1  0  0  0  0
 16 18  1  0  0  0  0
 16 19  1  0  0  0  0
 19 20  1  0  0  0  0
 19 21  1  0  0  0  0
 19 22  1  0  0  0  0
  1 23  1  0  0  0  0
 23 24  1  0  0  0  0
 23 25  1  0  0  0  0
 23 26  1  0  0  0  0
M  END
> <VConfSearch Rank>
794

> <Conf_Id>
134

> <Delta U+W>
1.464

> <U+W>
23.306

> <U>
72.579

> <W>
-49.273

> <W(PB)>
-51.540

> <W(SA)>
2.267

> <Valence>
2.677

> <Coulomb>
69.622

> <VdW>
0.280

> <VdW6>
-7.328

> <VdW12>
7.608

> <Bond>
0.212

> <Angle>
0.911

> <Pdih>
1.555

> <Idih>
0.000

> <Tether>
0.000

$$$$
VeraChem MOL file


 26 25  0  0  0  0  0  0  0  0999 V2000     
   21.2797   20.6754   25.3114 N   0  3  0  0  0  0  0  0  0  0  0  0
   22.0493   19.9881   25.2977 H   0  0  0  0  0  0  0  0  0  0  0  0
   20.7023   20.4248   26.1291 H   0  0  0  0  0  0  0  0  0  0  0  0
   20.4607   20.5692   24.0407 C   0  0  0  0  0  0  0  0  0  0  0  0
   21.1084   20.8338   23.2012 H   0  0  0  0  0  0  0  0  0  0  0  0
   19.6547   21.3050   24.0990 H   0  0  0  0  0  0  0  0  0  0  0  0
   19.8667   19.1671   23.8145 C   0  0  0  0  0  0  0  0  0  0  0  0
   20.6832   18.4350   23.7761 H   0  0  0  0  0  0  0  0  0  0  0  0
   19.2293   18.8985   24.6673 H   0  0  0  0  0  0  0  0  0  0  0  0
   19.0403   19.1097   22.5083 C   0  0  0  0  0  0  0  0  0  0  0  0
   19.6856   19.3400   21.6500 H   0  0  0  0  0  0  0  0  0  0  0  0
   18.2786   19.9014   22.5332 H   0  0  0  0  0  0  0  0  0  0  0  0
   18.3256   17.7517   22.2846 C   0  0  0  0  0  0  0  0  0  0  0  0
   17.6012   17.5914   23.0951 H   0  0  0  0  0  0  0  0  0  0  0  0
   17.7333   17.8133   21.3612 H   0  0  0  0  0  0  0  0  0  0  0  0
   19.2596   16.5174   22.1986 C   0  0  0  0  0  0  0  0  0  0  0  0
   18.6418   15.6222   22.0410 H   0  0  0  0  0  0  0  0  0  0  0  0
   19.7728   16.3616   23.1570 H   0  0  0  0  0  0  0  0  0  0  0  0
   20.2994   16.6108   21.0589 C   0  0  0  0  0  0  0  0  0  0  0  0
   19.8103   16.7856   20.0918 H   0  0  0  0  0  0  0  0  0  0  0  0
   20.8707   15.6767   20.9820 H   0  0  0  0  0  0  0  0  0  0  0  0
   21.0164   17.4225   21.2337 H   0  0  0  0  0  0  0  0  0  0  0  0
   21.8281   22.0881   25.4577 C   0  0  0  0  0  0  0  0  0  0  0  0
   20.9955   22.7936   25.5034 H   0  0  0  0  0  0  0  0  0  0  0  0
   22.4156   22.1510   26.3765 H   0  0  0  0  0  0  0  0  0  0  0  0
   22.4616   22.3182   24.5983 H   0  0  0  0  0  0  0  0  0  0  0  0
  1  2  1  0  0  0  0
  1  3  1  0  0  0  0
  1  4  1  0  0  0  0
  4  5  1  0  0  0  0
  4  6  1  0  0  0  0
  4  7  1  0  0  0  0
  7  8  1  0  0  0  0
  7  9  1  0  0  0  0
  7 10  1  0  0  0  0
 10 11  1  0  0  0  0
 10 12  1  0  0  0  0
 10 13  1  0  0  0  0
 13 14  1  0  0  0  0
 13 15  1  0  0  0  0
 13 16  1  0  0  0  0
 16 17  1  0  0  0  0
 16 18  1  0  0  0  0
 16 19  1  0  0  0  0
 19 20  1  0  0  0  0
 19 21  1  0  0  0  0
 19 22  1  0  0  0  0
  1 23  1  0  0  0  0
 23 24  1  0  0  0  0
 23 25  1  0  0  0  0
 23 26  1  0  0  0  0
M  END
> <VConfSearch Rank>
795

> <Conf_Id>
30

> <Delta U+W>
0.910

> <U+W>
22.752

> <U>
71.870

> <W>
-49.118

> <W(PB)>
-51.409

> <W(SA)>
2.290

> <Valence>
2.682

> <Coulomb>
68.933

> <VdW>
0.255

> <VdW6>
-6.833

> <VdW12>
7.088

> <Bond>
0.205

> <Angle>
1.003

> <Pdih>
1.473

> <Idih>
0.000

> <Tether>
0.000

$$$$
VeraChem MOL file


 26 25  0  0  0  0  0  0  0  0999 V2000     
   17.8747   18.5437   25.0861 N   0  3  0  0  0  0  0  0  0  0  0  0
   17.0601   18.7770   24.4972 H   0  0  0  0  0  0  0  0  0  0  0  0
   18.1455   19.4282   25.5433 H   0  0  0  0  0  0  0  0  0  0  0  0
   19.0116   18.0299   24.2257 C   0  0  0  0  0  0  0  0  0  0  0  0
   18.6820   17.1003   23.7549 H   0  0  0  0  0  0  0  0  0  0  0  0
   19.8541   17.8028   24.8839 H   0  0  0  0  0  0  0  0  0  0  0  0
   19.4557   19.0298   23.1428 C   0  0  0  0  0  0  0  0  0  0  0  0
   18.6028   19.2677   22.4933 H   0  0  0  0  0  0  0  0  0  0  0  0
   19.7667   19.9648   23.6257 H   0  0  0  0  0  0  0  0  0  0  0  0
   20.6152   18.4604   22.2920 C   0  0  0  0  0  0  0  0  0  0  0  0
   20.3117   17.4874   21.8814 H   0  0  0  0  0  0  0  0  0  0  0  0
   21.4829   18.2586   22.9342 H   0  0  0  0  0  0  0  0  0  0  0  0
   21.0304   19.3793   21.1137 C   0  0  0  0  0  0  0  0  0  0  0  0
   21.8265   18.8818   20.5428 H   0  0  0  0  0  0  0  0  0  0  0  0
   20.1825   19.4783   20.4219 H   0  0  0  0  0  0  0  0  0  0  0  0
   21.5140   20.7961   21.5166 C   0  0  0  0  0  0  0  0  0  0  0  0
   20.6939   21.3599   21.9809 H   0  0  0  0  0  0  0  0  0  0  0  0
   21.7773   21.3480   20.6034 H   0  0  0  0  0  0  0  0  0  0  0  0
   22.7382   20.7832   22.4600 C   0  0  0  0  0  0  0  0  0  0  0  0
   22.4904   20.3454   23.4349 H   0  0  0  0  0  0  0  0  0  0  0  0
   23.0967   21.8052   22.6387 H   0  0  0  0  0  0  0  0  0  0  0  0
   23.5659   20.2084   22.0247 H   0  0  0  0  0  0  0  0  0  0  0  0
   17.4992   17.4978   26.1268 C   0  0  0  0  0  0  0  0  0  0  0  0
   16.6796   17.8802   26.7394 H   0  0  0  0  0  0  0  0  0  0  0  0
   17.1849   16.5831   25.6195 H   0  0  0  0  0  0  0  0  0  0  0  0
   18.3664   17.2918   26.7580 H   0  0  0  0  0  0  0  0  0  0  0  0
  1  2  1  0  0  0  0
  1  3  1  0  0  0  0
  1  4  1  0  0  0  0
  4  5  1  0  0  0  0
  4  6  1  0  0  0  0
  4  7  1  0  0  0  0
  7  8  1  0  0  0  0
  7  9  1  0  0  0  0
  7 10  1  0  0  0  0
 10 11  1  0  0  0  0
 10 12  1  0  0  0  0
 10 13  1  0  0  0  0
 13 14  1  0  0  0  0
 13 15  1  0  0  0  0
 13 16  1  0  0  0  0
 16 17  1  0  0  0  0
 16 18  1  0  0  0  0
 16 19  1  0  0  0  0
 19 20  1  0  0  0  0
 19 21  1  0  0  0  0
 19 22  1  0  0  0  0
  1 23  1  0  0  0  0
 23 24  1  0  0  0  0
 23 25  1  0  0  0  0
 23 26  1  0  0  0  0
M  END
> <VConfSearch Rank>
796

> <Conf_Id>
29

> <Delta U+W>
0.886

> <U+W>
22.729

> <U>
71.870

> <W>
-49.141

> <W(PB)>
-51.404

> <W(SA)>
2.262

> <Valence>
2.682

> <Coulomb>
68.933

> <VdW>
0.255

> <VdW6>
-6.833

> <VdW12>
7.088

> <Bond>
0.205

> <Angle>
1.003

> <Pdih>
1.473

> <Idih>
0.000

> <Tether>
0.000

$$$$
VeraChem MOL file


 26 25  0  0  0  0  0  0  0  0999 V2000     
   18.5531   20.2431   21.4254 N   0  3  0  0  0  0  0  0  0  0  0  0
   17.6568   20.6529   21.7310 H   0  0  0  0  0  0  0  0  0  0  0  0
   18.3261   19.2851   21.1165 H   0  0  0  0  0  0  0  0  0  0  0  0
   19.5305   20.2019   22.5827 C   0  0  0  0  0  0  0  0  0  0  0  0
   19.7342   21.2316   22.8871 H   0  0  0  0  0  0  0  0  0  0  0  0
   20.4607   19.7598   22.2178 H   0  0  0  0  0  0  0  0  0  0  0  0
   19.0120   19.3976   23.7899 C   0  0  0  0  0  0  0  0  0  0  0  0
   18.0595   19.8279   24.1264 H   0  0  0  0  0  0  0  0  0  0  0  0
   18.7929   18.3673   23.4817 H   0  0  0  0  0  0  0  0  0  0  0  0
   20.0068   19.3948   24.9772 C   0  0  0  0  0  0  0  0  0  0  0  0
   19.5723   18.8236   25.8084 H   0  0  0  0  0  0  0  0  0  0  0  0
   20.1166   20.4225   25.3504 H   0  0  0  0  0  0  0  0  0  0  0  0
   21.4169   18.8361   24.6445 C   0  0  0  0  0  0  0  0  0  0  0  0
   21.9172   19.5077   23.9337 H   0  0  0  0  0  0  0  0  0  0  0  0
   22.0290   18.8641   25.5564 H   0  0  0  0  0  0  0  0  0  0  0  0
   21.4375   17.3956   24.0726 C   0  0  0  0  0  0  0  0  0  0  0  0
   22.4800   17.1158   23.8661 H   0  0  0  0  0  0  0  0  0  0  0  0
   20.9208   17.3637   23.1041 H   0  0  0  0  0  0  0  0  0  0  0  0
   20.8215   16.3480   25.0276 C   0  0  0  0  0  0  0  0  0  0  0  0
   20.9369   15.3371   24.6157 H   0  0  0  0  0  0  0  0  0  0  0  0
   19.7490   16.5226   25.1789 H   0  0  0  0  0  0  0  0  0  0  0  0
   21.3149   16.3694   26.0079 H   0  0  0  0  0  0  0  0  0  0  0  0
   19.1446   21.0485   20.2768 C   0  0  0  0  0  0  0  0  0  0  0  0
   18.4309   21.0707   19.4502 H   0  0  0  0  0  0  0  0  0  0  0  0
   19.3455   22.0664   20.6181 H   0  0  0  0  0  0  0  0  0  0  0  0
   20.0740   20.5776   19.9492 H   0  0  0  0  0  0  0  0  0  0  0  0
  1  2  1  0  0  0  0
  1  3  1  0  0  0  0
  1  4  1  0  0  0  0
  4  5  1  0  0  0  0
  4  6  1  0  0  0  0
  4  7  1  0  0  0  0
  7  8  1  0  0  0  0
  7  9  1  0  0  0  0
  7 10  1  0  0  0  0
 10 11  1  0  0  0  0
 10 12  1  0  0  0  0
 10 13  1  0  0  0  0
 13 14  1  0  0  0  0
 13 15  1  0  0  0  0
 13 16  1  0  0  0  0
 16 17  1  0  0  0  0
 16 18  1  0  0  0  0
 16 19  1  0  0  0  0
 19 20  1  0  0  0  0
 19 21  1  0  0  0  0
 19 22  1  0  0  0  0
  1 23  1  0  0  0  0
 23 24  1  0  0  0  0
 23 25  1  0  0  0  0
 23 26  1  0  0  0  0
M  END
> <VConfSearch Rank>
797

> <Conf_Id>
82

> <Delta U+W>
1.026

> <U+W>
22.868

> <U>
72.455

> <W>
-49.586

> <W(PB)>
-51.821

> <W(SA)>
2.234

> <Valence>
2.908

> <Coulomb>
69.435

> <VdW>
0.112

> <VdW6>
-7.765

> <VdW12>
7.877

> <Bond>
0.233

> <Angle>
1.170

> <Pdih>
1.506

> <Idih>
0.000

> <Tether>
0.000

$$$$
VeraChem MOL file


 26 25  0  0  0  0  0  0  0  0999 V2000     
   22.6730   19.5753   22.9628 N   0  3  0  0  0  0  0  0  0  0  0  0
   22.5477   20.3082   23.6782 H   0  0  0  0  0  0  0  0  0  0  0  0
   22.9292   20.0766   22.0980 H   0  0  0  0  0  0  0  0  0  0  0  0
   21.3786   18.8136   22.7615 C   0  0  0  0  0  0  0  0  0  0  0  0
   21.1436   18.3025   23.6982 H   0  0  0  0  0  0  0  0  0  0  0  0
   21.5496   18.0585   21.9901 H   0  0  0  0  0  0  0  0  0  0  0  0
   20.1985   19.7150   22.3517 C   0  0  0  0  0  0  0  0  0  0  0  0
   20.0356   20.4830   23.1185 H   0  0  0  0  0  0  0  0  0  0  0  0
   20.4586   20.2507   21.4292 H   0  0  0  0  0  0  0  0  0  0  0  0
   18.8919   18.9173   22.1153 C   0  0  0  0  0  0  0  0  0  0  0  0
   19.0386   18.2412   21.2616 H   0  0  0  0  0  0  0  0  0  0  0  0
   18.0979   19.6114   21.8092 H   0  0  0  0  0  0  0  0  0  0  0  0
   18.4100   18.0810   23.3316 C   0  0  0  0  0  0  0  0  0  0  0  0
   17.4730   17.5755   23.0601 H   0  0  0  0  0  0  0  0  0  0  0  0
   19.1312   17.2768   23.5304 H   0  0  0  0  0  0  0  0  0  0  0  0
   18.1837   18.8855   24.6371 C   0  0  0  0  0  0  0  0  0  0  0  0
   19.1317   19.3145   24.9882 H   0  0  0  0  0  0  0  0  0  0  0  0
   17.8586   18.1910   25.4243 H   0  0  0  0  0  0  0  0  0  0  0  0
   17.1264   20.0036   24.4928 C   0  0  0  0  0  0  0  0  0  0  0  0
   17.4566   20.7823   23.7942 H   0  0  0  0  0  0  0  0  0  0  0  0
   16.9414   20.4855   25.4615 H   0  0  0  0  0  0  0  0  0  0  0  0
   16.1720   19.5996   24.1311 H   0  0  0  0  0  0  0  0  0  0  0  0
   23.7810   18.6144   23.3711 C   0  0  0  0  0  0  0  0  0  0  0  0
   23.9175   17.8688   22.5848 H   0  0  0  0  0  0  0  0  0  0  0  0
   24.7075   19.1753   23.5125 H   0  0  0  0  0  0  0  0  0  0  0  0
   23.5024   18.1209   24.3049 H   0  0  0  0  0  0  0  0  0  0  0  0
  1  2  1  0  0  0  0
  1  3  1  0  0  0  0
  1  4  1  0  0  0  0
  4  5  1  0  0  0  0
  4  6  1  0  0  0  0
  4  7  1  0  0  0  0
  7  8  1  0  0  0  0
  7  9  1  0  0  0  0
  7 10  1  0  0  0  0
 10 11  1  0  0  0  0
 10 12  1  0  0  0  0
 10 13  1  0  0  0  0
 13 14  1  0  0  0  0
 13 15  1  0  0  0  0
 13 16  1  0  0  0  0
 16 17  1  0  0  0  0
 16 18  1  0  0  0  0
 16 19  1  0  0  0  0
 19 20  1  0  0  0  0
 19 21  1  0  0  0  0
 19 22  1  0  0  0  0
  1 23  1  0  0  0  0
 23 24  1  0  0  0  0
 23 25  1  0  0  0  0
 23 26  1  0  0  0  0
M  END
> <VConfSearch Rank>
798

> <Conf_Id>
71

> <Delta U+W>
1.096

> <U+W>
22.938

> <U>
72.455

> <W>
-49.517

> <W(PB)>
-51.795

> <W(SA)>
2.278

> <Valence>
2.908

> <Coulomb>
69.435

> <VdW>
0.112

> <VdW6>
-7.766

> <VdW12>
7.877

> <Bond>
0.233

> <Angle>
1.170

> <Pdih>
1.506

> <Idih>
0.000

> <Tether>
0.000

$$$$
VeraChem MOL file


 26 25  0  0  0  0  0  0  0  0999 V2000     
   19.8015   20.7242   25.1122 N   0  3  0  0  0  0  0  0  0  0  0  0
   20.5466   20.7670   24.4011 H   0  0  0  0  0  0  0  0  0  0  0  0
   20.2758   20.9012   26.0118 H   0  0  0  0  0  0  0  0  0  0  0  0
   19.1782   19.3375   25.1281 C   0  0  0  0  0  0  0  0  0  0  0  0
   18.3837   19.3394   25.8786 H   0  0  0  0  0  0  0  0  0  0  0  0
   19.9485   18.6370   25.4594 H   0  0  0  0  0  0  0  0  0  0  0  0
   18.6082   18.8585   23.7734 C   0  0  0  0  0  0  0  0  0  0  0  0
   18.1948   17.8498   23.9044 H   0  0  0  0  0  0  0  0  0  0  0  0
   17.7613   19.4964   23.4897 H   0  0  0  0  0  0  0  0  0  0  0  0
   19.6429   18.8402   22.6200 C   0  0  0  0  0  0  0  0  0  0  0  0
   20.0045   19.8590   22.4274 H   0  0  0  0  0  0  0  0  0  0  0  0
   19.1265   18.5218   21.7052 H   0  0  0  0  0  0  0  0  0  0  0  0
   20.8436   17.8982   22.8917 C   0  0  0  0  0  0  0  0  0  0  0  0
   21.3433   18.1968   23.8225 H   0  0  0  0  0  0  0  0  0  0  0  0
   20.4810   16.8734   23.0513 H   0  0  0  0  0  0  0  0  0  0  0  0
   21.8980   17.9016   21.7582 C   0  0  0  0  0  0  0  0  0  0  0  0
   22.7615   17.3023   22.0794 H   0  0  0  0  0  0  0  0  0  0  0  0
   22.2742   18.9224   21.6027 H   0  0  0  0  0  0  0  0  0  0  0  0
   21.3691   17.3329   20.4216 C   0  0  0  0  0  0  0  0  0  0  0  0
   20.5863   17.9704   19.9926 H   0  0  0  0  0  0  0  0  0  0  0  0
   20.9569   16.3246   20.5567 H   0  0  0  0  0  0  0  0  0  0  0  0
   22.1801   17.2674   19.6847 H   0  0  0  0  0  0  0  0  0  0  0  0
   18.7500   21.7983   24.8592 C   0  0  0  0  0  0  0  0  0  0  0  0
   19.2283   22.7799   24.8849 H   0  0  0  0  0  0  0  0  0  0  0  0
   18.2970   21.6359   23.8791 H   0  0  0  0  0  0  0  0  0  0  0  0
   17.9844   21.7405   25.6359 H   0  0  0  0  0  0  0  0  0  0  0  0
  1  2  1  0  0  0  0
  1  3  1  0  0  0  0
  1  4  1  0  0  0  0
  4  5  1  0  0  0  0
  4  6  1  0  0  0  0
  4  7  1  0  0  0  0
  7  8  1  0  0  0  0
  7  9  1  0  0  0  0
  7 10  1  0  0  0  0
 10 11  1  0  0  0  0
 10 12  1  0  0  0  0
 10 13  1  0  0  0  0
 13 14  1  0  0  0  0
 13 15  1  0  0  0  0
 13 16  1  0  0  0  0
 16 17  1  0  0  0  0
 16 18  1  0  0  0  0
 16 19  1  0  0  0  0
 19 20  1  0  0  0  0
 19 21  1  0  0  0  0
 19 22  1  0  0  0  0
  1 23  1  0  0  0  0
 23 24  1  0  0  0  0
 23 25  1  0  0  0  0
 23 26  1  0  0  0  0
M  END
> <VConfSearch Rank>
799

> <Conf_Id>
84

> <Delta U+W>
1.456

> <U+W>
23.298

> <U>
73.042

> <W>
-49.744

> <W(PB)>
-51.966

> <W(SA)>
2.222

> <Valence>
2.938

> <Coulomb>
69.625

> <VdW>
0.478

> <VdW6>
-8.182

> <VdW12>
8.660

> <Bond>
0.253

> <Angle>
1.038

> <Pdih>
1.647

> <Idih>
0.000

> <Tether>
0.000

$$$$
VeraChem MOL file


 26 25  0  0  0  0  0  0  0  0999 V2000     
   20.4026   17.8848   25.2404 N   0  3  0  0  0  0  0  0  0  0  0  0
   20.2692   18.9067   25.2103 H   0  0  0  0  0  0  0  0  0  0  0  0
   21.3485   17.7400   25.6264 H   0  0  0  0  0  0  0  0  0  0  0  0
   20.3172   17.3099   23.8401 C   0  0  0  0  0  0  0  0  0  0  0  0
   19.3038   17.4784   23.4682 H   0  0  0  0  0  0  0  0  0  0  0  0
   20.4761   16.2312   23.9147 H   0  0  0  0  0  0  0  0  0  0  0  0
   21.3409   17.9115   22.8550 C   0  0  0  0  0  0  0  0  0  0  0  0
   22.3558   17.6905   23.2115 H   0  0  0  0  0  0  0  0  0  0  0  0
   21.2392   17.4015   21.8879 H   0  0  0  0  0  0  0  0  0  0  0  0
   21.1927   19.4395   22.6445 C   0  0  0  0  0  0  0  0  0  0  0  0
   21.9688   19.7716   21.9411 H   0  0  0  0  0  0  0  0  0  0  0  0
   21.3905   19.9681   23.5866 H   0  0  0  0  0  0  0  0  0  0  0  0
   19.8038   19.8478   22.0968 C   0  0  0  0  0  0  0  0  0  0  0  0
   19.6002   19.2987   21.1671 H   0  0  0  0  0  0  0  0  0  0  0  0
   19.0191   19.5651   22.8112 H   0  0  0  0  0  0  0  0  0  0  0  0
   19.7172   21.3664   21.8260 C   0  0  0  0  0  0  0  0  0  0  0  0
   20.4918   21.6597   21.1035 H   0  0  0  0  0  0  0  0  0  0  0  0
   19.9221   21.9212   22.7524 H   0  0  0  0  0  0  0  0  0  0  0  0
   18.3307   21.7726   21.2824 C   0  0  0  0  0  0  0  0  0  0  0  0
   18.1112   21.2590   20.3372 H   0  0  0  0  0  0  0  0  0  0  0  0
   18.2889   22.8535   21.0957 H   0  0  0  0  0  0  0  0  0  0  0  0
   17.5371   21.5238   21.9989 H   0  0  0  0  0  0  0  0  0  0  0  0
   19.3546   17.2349   26.1328 C   0  0  0  0  0  0  0  0  0  0  0  0
   19.5348   16.1584   26.1729 H   0  0  0  0  0  0  0  0  0  0  0  0
   19.4266   17.6585   27.1371 H   0  0  0  0  0  0  0  0  0  0  0  0
   18.3618   17.4289   25.7209 H   0  0  0  0  0  0  0  0  0  0  0  0
  1  2  1  0  0  0  0
  1  3  1  0  0  0  0
  1  4  1  0  0  0  0
  4  5  1  0  0  0  0
  4  6  1  0  0  0  0
  4  7  1  0  0  0  0
  7  8  1  0  0  0  0
  7  9  1  0  0  0  0
  7 10  1  0  0  0  0
 10 11  1  0  0  0  0
 10 12  1  0  0  0  0
 10 13  1  0  0  0  0
 13 14  1  0  0  0  0
 13 15  1  0  0  0  0
 13 16  1  0  0  0  0
 16 17  1  0  0  0  0
 16 18  1  0  0  0  0
 16 19  1  0  0  0  0
 19 20  1  0  0  0  0
 19 21  1  0  0  0  0
 19 22  1  0  0  0  0
  1 23  1  0  0  0  0
 23 24  1  0  0  0  0
 23 25  1  0  0  0  0
 23 26  1  0  0  0  0
M  END
> <VConfSearch Rank>
800

> <Conf_Id>
73

> <Delta U+W>
0.884

> <U+W>
22.726

> <U>
71.905

> <W>
-49.179

> <W(PB)>
-51.494

> <W(SA)>
2.315

> <Valence>
2.125

> <Coulomb>
69.686

> <VdW>
0.093

> <VdW6>
-6.766

> <VdW12>
6.859

> <Bond>
0.169

> <Angle>
0.621

> <Pdih>
1.336

> <Idih>
0.000

> <Tether>
0.000

$$$$
VeraChem MOL file


 26 25  0  0  0  0  0  0  0  0999 V2000     
   19.3026   21.7422   21.6109 N   0  3  0  0  0  0  0  0  0  0  0  0
   18.6981   22.1557   22.3378 H   0  0  0  0  0  0  0  0  0  0  0  0
   18.6599   21.2744   20.9529 H   0  0  0  0  0  0  0  0  0  0  0  0
   20.2461   20.7299   22.2291 C   0  0  0  0  0  0  0  0  0  0  0  0
   20.9014   21.2625   22.9229 H   0  0  0  0  0  0  0  0  0  0  0  0
   20.8603   20.3112   21.4279 H   0  0  0  0  0  0  0  0  0  0  0  0
   19.5189   19.5943   22.9718 C   0  0  0  0  0  0  0  0  0  0  0  0
   18.8903   20.0206   23.7649 H   0  0  0  0  0  0  0  0  0  0  0  0
   18.8493   19.0725   22.2750 H   0  0  0  0  0  0  0  0  0  0  0  0
   20.5187   18.5884   23.5843 C   0  0  0  0  0  0  0  0  0  0  0  0
   21.1902   19.1152   24.2767 H   0  0  0  0  0  0  0  0  0  0  0  0
   21.1494   18.1683   22.7884 H   0  0  0  0  0  0  0  0  0  0  0  0
   19.7995   17.4430   24.3327 C   0  0  0  0  0  0  0  0  0  0  0  0
   19.1689   17.8628   25.1287 H   0  0  0  0  0  0  0  0  0  0  0  0
   19.1281   16.9160   23.6406 H   0  0  0  0  0  0  0  0  0  0  0  0
   20.7997   16.4371   24.9452 C   0  0  0  0  0  0  0  0  0  0  0  0
   21.4723   16.9590   25.6405 H   0  0  0  0  0  0  0  0  0  0  0  0
   21.4315   16.0123   24.1525 H   0  0  0  0  0  0  0  0  0  0  0  0
   20.0781   15.2949   25.6918 C   0  0  0  0  0  0  0  0  0  0  0  0
   20.8044   14.5915   26.1194 H   0  0  0  0  0  0  0  0  0  0  0  0
   19.4232   14.7319   25.0140 H   0  0  0  0  0  0  0  0  0  0  0  0
   19.4643   15.6860   26.5136 H   0  0  0  0  0  0  0  0  0  0  0  0
   20.0999   22.8263   20.8990 C   0  0  0  0  0  0  0  0  0  0  0  0
   20.7059   22.3693   20.1135 H   0  0  0  0  0  0  0  0  0  0  0  0
   19.4088   23.5484   20.4586 H   0  0  0  0  0  0  0  0  0  0  0  0
   20.7475   23.3286   21.6210 H   0  0  0  0  0  0  0  0  0  0  0  0
  1  2  1  0  0  0  0
  1  3  1  0  0  0  0
  1  4  1  0  0  0  0
  4  5  1  0  0  0  0
  4  6  1  0  0  0  0
  4  7  1  0  0  0  0
  7  8  1  0  0  0  0
  7  9  1  0  0  0  0
  7 10  1  0  0  0  0
 10 11  1  0  0  0  0
 10 12  1  0  0  0  0
 10 13  1  0  0  0  0
 13 14  1  0  0  0  0
 13 15  1  0  0  0  0
 13 16  1  0  0  0  0
 16 17  1  0  0  0  0
 16 18  1  0  0  0  0
 16 19  1  0  0  0  0
 19 20  1  0  0  0  0
 19 21  1  0  0  0  0
 19 22  1  0  0  0  0
  1 23  1  0  0  0  0
 23 24  1  0  0  0  0
 23 25  1  0  0  0  0
 23 26  1  0  0  0  0
M  END
> <VConfSearch Rank>
801

> <Conf_Id>
11

> <Delta U+W>
0.000

> <U+W>
21.842

> <U>
70.357

> <W>
-48.515

> <W(PB)>
-50.856

> <W(SA)>
2.341

> <Valence>
1.714

> <Coulomb>
68.480

> <VdW>
0.163

> <VdW6>
-5.268

> <VdW12>
5.431

> <Bond>
0.126

> <Angle>
0.350

> <Pdih>
1.238

> <Idih>
0.000

> <Tether>
0.000

$$$$
VeraChem MOL file


 26 25  0  0  0  0  0  0  0  0999 V2000     
   23.3332   18.7278   23.7434 N   0  3  0  0  0  0  0  0  0  0  0  0
   23.9765   18.3282   24.4452 H   0  0  0  0  0  0  0  0  0  0  0  0
   23.5058   19.7445   23.7729 H   0  0  0  0  0  0  0  0  0  0  0  0
   21.8976   18.4268   24.1403 C   0  0  0  0  0  0  0  0  0  0  0  0
   21.7861   18.7060   25.1911 H   0  0  0  0  0  0  0  0  0  0  0  0
   21.7448   17.3478   24.0582 H   0  0  0  0  0  0  0  0  0  0  0  0
   20.8337   19.1720   23.3086 C   0  0  0  0  0  0  0  0  0  0  0  0
   21.0250   20.2522   23.3567 H   0  0  0  0  0  0  0  0  0  0  0  0
   20.9134   18.8773   22.2542 H   0  0  0  0  0  0  0  0  0  0  0  0
   19.4072   18.8731   23.8206 C   0  0  0  0  0  0  0  0  0  0  0  0
   19.3282   19.1663   24.8768 H   0  0  0  0  0  0  0  0  0  0  0  0
   19.2222   17.7906   23.7769 H   0  0  0  0  0  0  0  0  0  0  0  0
   18.3308   19.6153   22.9961 C   0  0  0  0  0  0  0  0  0  0  0  0
   18.5159   20.6976   23.0395 H   0  0  0  0  0  0  0  0  0  0  0  0
   18.4095   19.3220   21.9400 H   0  0  0  0  0  0  0  0  0  0  0  0
   16.9042   19.3161   23.5084 C   0  0  0  0  0  0  0  0  0  0  0  0
   16.8195   19.6102   24.5640 H   0  0  0  0  0  0  0  0  0  0  0  0
   16.7132   18.2346   23.4647 H   0  0  0  0  0  0  0  0  0  0  0  0
   15.8320   20.0588   22.6827 C   0  0  0  0  0  0  0  0  0  0  0  0
   14.8265   19.8340   23.0613 H   0  0  0  0  0  0  0  0  0  0  0  0
   15.8690   19.7596   21.6271 H   0  0  0  0  0  0  0  0  0  0  0  0
   15.9761   21.1459   22.7351 H   0  0  0  0  0  0  0  0  0  0  0  0
   23.6558   18.1625   22.3647 C   0  0  0  0  0  0  0  0  0  0  0  0
   23.0152   18.6383   21.6195 H   0  0  0  0  0  0  0  0  0  0  0  0
   24.7033   18.3659   22.1315 H   0  0  0  0  0  0  0  0  0  0  0  0
   23.4819   17.0842   22.3694 H   0  0  0  0  0  0  0  0  0  0  0  0
  1  2  1  0  0  0  0
  1  3  1  0  0  0  0
  1  4  1  0  0  0  0
  4  5  1  0  0  0  0
  4  6  1  0  0  0  0
  4  7  1  0  0  0  0
  7  8  1  0  0  0  0
  7  9  1  0  0  0  0
  7 10  1  0  0  0  0
 10 11  1  0  0  0  0
 10 12  1  0  0  0  0
 10 13  1  0  0  0  0
 13 14  1  0  0  0  0
 13 15  1  0  0  0  0
 13 16  1  0  0  0  0
 16 17  1  0  0  0  0
 16 18  1  0  0  0  0
 16 19  1  0  0  0  0
 19 20  1  0  0  0  0
 19 21  1  0  0  0  0
 19 22  1  0  0  0  0
  1 23  1  0  0  0  0
 23 24  1  0  0  0  0
 23 25  1  0  0  0  0
 23 26  1  0  0  0  0
M  END
> <VConfSearch Rank>
802

> <Conf_Id>
102

> <Delta U+W>
0.121

> <U+W>
21.963

> <U>
70.745

> <W>
-48.782

> <W(PB)>
-51.111

> <W(SA)>
2.329

> <Valence>
1.993

> <Coulomb>
68.323

> <VdW>
0.429

> <VdW6>
-5.973

> <VdW12>
6.402

> <Bond>
0.161

> <Angle>
0.472

> <Pdih>
1.360

> <Idih>
0.000

> <Tether>
0.000

$$$$
VeraChem MOL file


 26 25  0  0  0  0  0  0  0  0999 V2000     
   18.9212   21.7939   24.8648 N   0  3  0  0  0  0  0  0  0  0  0  0
   17.9498   21.4480   24.9010 H   0  0  0  0  0  0  0  0  0  0  0  0
   18.8361   22.8090   24.6968 H   0  0  0  0  0  0  0  0  0  0  0  0
   19.6662   21.1480   23.7085 C   0  0  0  0  0  0  0  0  0  0  0  0
   20.6975   21.5091   23.7289 H   0  0  0  0  0  0  0  0  0  0  0  0
   19.2012   21.5020   22.7848 H   0  0  0  0  0  0  0  0  0  0  0  0
   19.6501   19.6058   23.7181 C   0  0  0  0  0  0  0  0  0  0  0  0
   20.1424   19.2351   24.6264 H   0  0  0  0  0  0  0  0  0  0  0  0
   18.6108   19.2527   23.7478 H   0  0  0  0  0  0  0  0  0  0  0  0
   20.3607   19.0271   22.4745 C   0  0  0  0  0  0  0  0  0  0  0  0
   21.3983   19.3881   22.4449 H   0  0  0  0  0  0  0  0  0  0  0  0
   19.8688   19.3999   21.5651 H   0  0  0  0  0  0  0  0  0  0  0  0
   20.3506   17.4814   22.4711 C   0  0  0  0  0  0  0  0  0  0  0  0
   20.8427   17.1085   23.3801 H   0  0  0  0  0  0  0  0  0  0  0  0
   19.3132   17.1204   22.5009 H   0  0  0  0  0  0  0  0  0  0  0  0
   21.0613   16.9029   21.2271 C   0  0  0  0  0  0  0  0  0  0  0  0
   22.1004   17.2594   21.1939 H   0  0  0  0  0  0  0  0  0  0  0  0
   20.5710   17.2710   20.3148 H   0  0  0  0  0  0  0  0  0  0  0  0
   21.0495   15.3593   21.2273 C   0  0  0  0  0  0  0  0  0  0  0  0
   21.5637   14.9606   22.1115 H   0  0  0  0  0  0  0  0  0  0  0  0
   21.5582   14.9676   20.3369 H   0  0  0  0  0  0  0  0  0  0  0  0
   20.0222   14.9722   21.2257 H   0  0  0  0  0  0  0  0  0  0  0  0
   19.6348   21.5467   26.1892 C   0  0  0  0  0  0  0  0  0  0  0  0
   20.6522   21.9391   26.1272 H   0  0  0  0  0  0  0  0  0  0  0  0
   19.0913   22.0560   26.9882 H   0  0  0  0  0  0  0  0  0  0  0  0
   19.6627   20.4740   26.3906 H   0  0  0  0  0  0  0  0  0  0  0  0
  1  2  1  0  0  0  0
  1  3  1  0  0  0  0
  1  4  1  0  0  0  0
  4  5  1  0  0  0  0
  4  6  1  0  0  0  0
  4  7  1  0  0  0  0
  7  8  1  0  0  0  0
  7  9  1  0  0  0  0
  7 10  1  0  0  0  0
 10 11  1  0  0  0  0
 10 12  1  0  0  0  0
 10 13  1  0  0  0  0
 13 14  1  0  0  0  0
 13 15  1  0  0  0  0
 13 16  1  0  0  0  0
 16 17  1  0  0  0  0
 16 18  1  0  0  0  0
 16 19  1  0  0  0  0
 19 20  1  0  0  0  0
 19 21  1  0  0  0  0
 19 22  1  0  0  0  0
  1 23  1  0  0  0  0
 23 24  1  0  0  0  0
 23 25  1  0  0  0  0
 23 26  1  0  0  0  0
M  END
> <VConfSearch Rank>
803

> <Conf_Id>
37

> <Delta U+W>
0.125

> <U+W>
21.967

> <U>
70.745

> <W>
-48.778

> <W(PB)>
-51.115

> <W(SA)>
2.337

> <Valence>
1.993

> <Coulomb>
68.323

> <VdW>
0.429

> <VdW6>
-5.973

> <VdW12>
6.403

> <Bond>
0.161

> <Angle>
0.472

> <Pdih>
1.360

> <Idih>
0.000

> <Tether>
0.000

$$$$
VeraChem MOL file


 26 25  0  0  0  0  0  0  0  0999 V2000     
   19.4846   20.2154   26.0557 N   0  3  0  0  0  0  0  0  0  0  0  0
   20.3671   20.3642   26.5694 H   0  0  0  0  0  0  0  0  0  0  0  0
   19.0751   19.3573   26.4566 H   0  0  0  0  0  0  0  0  0  0  0  0
   19.7653   20.0207   24.5794 C   0  0  0  0  0  0  0  0  0  0  0  0
   20.2064   20.9447   24.1972 H   0  0  0  0  0  0  0  0  0  0  0  0
   18.8081   19.8620   24.0773 H   0  0  0  0  0  0  0  0  0  0  0  0
   20.7095   18.8377   24.2903 C   0  0  0  0  0  0  0  0  0  0  0  0
   21.6489   18.9877   24.8388 H   0  0  0  0  0  0  0  0  0  0  0  0
   20.2667   17.9088   24.6737 H   0  0  0  0  0  0  0  0  0  0  0  0
   21.0286   18.6788   22.7847 C   0  0  0  0  0  0  0  0  0  0  0  0
   21.7882   17.8938   22.6759 H   0  0  0  0  0  0  0  0  0  0  0  0
   21.4820   19.6055   22.4066 H   0  0  0  0  0  0  0  0  0  0  0  0
   19.7838   18.3196   21.9336 C   0  0  0  0  0  0  0  0  0  0  0  0
   19.3429   17.3819   22.2992 H   0  0  0  0  0  0  0  0  0  0  0  0
   19.0151   19.0929   22.0620 H   0  0  0  0  0  0  0  0  0  0  0  0
   20.0880   18.1909   20.4210 C   0  0  0  0  0  0  0  0  0  0  0  0
   20.5189   19.1301   20.0470 H   0  0  0  0  0  0  0  0  0  0  0  0
   19.1401   18.0525   19.8822 H   0  0  0  0  0  0  0  0  0  0  0  0
   21.0295   17.0136   20.0786 C   0  0  0  0  0  0  0  0  0  0  0  0
   22.0345   17.1667   20.4907 H   0  0  0  0  0  0  0  0  0  0  0  0
   21.1328   16.9087   18.9909 H   0  0  0  0  0  0  0  0  0  0  0  0
   20.6368   16.0665   20.4708 H   0  0  0  0  0  0  0  0  0  0  0  0
   18.5460   21.3978   26.2530 C   0  0  0  0  0  0  0  0  0  0  0  0
   17.6078   21.2030   25.7287 H   0  0  0  0  0  0  0  0  0  0  0  0
   18.3522   21.5271   27.3201 H   0  0  0  0  0  0  0  0  0  0  0  0
   19.0143   22.2990   25.8513 H   0  0  0  0  0  0  0  0  0  0  0  0
  1  2  1  0  0  0  0
  1  3  1  0  0  0  0
  1  4  1  0  0  0  0
  4  5  1  0  0  0  0
  4  6  1  0  0  0  0
  4  7  1  0  0  0  0
  7  8  1  0  0  0  0
  7  9  1  0  0  0  0
  7 10  1  0  0  0  0
 10 11  1  0  0  0  0
 10 12  1  0  0  0  0
 10 13  1  0  0  0  0
 13 14  1  0  0  0  0
 13 15  1  0  0  0  0
 13 16  1  0  0  0  0
 16 17  1  0  0  0  0
 16 18  1  0  0  0  0
 16 19  1  0  0  0  0
 19 20  1  0  0  0  0
 19 21  1  0  0  0  0
 19 22  1  0  0  0  0
  1 23  1  0  0  0  0
 23 24  1  0  0  0  0
 23 25  1  0  0  0  0
 23 26  1  0  0  0  0
M  END
> <VConfSearch Rank>
804

> <Conf_Id>
137

> <Delta U+W>
1.038

> <U+W>
22.880

> <U>
71.810

> <W>
-48.930

> <W(PB)>
-51.257

> <W(SA)>
2.327

> <Valence>
2.568

> <Coulomb>
68.877

> <VdW>
0.364

> <VdW6>
-6.470

> <VdW12>
6.834

> <Bond>
0.191

> <Angle>
0.752

> <Pdih>
1.626

> <Idih>
0.000

> <Tether>
0.000

$$$$
VeraChem MOL file


 26 25  0  0  0  0  0  0  0  0999 V2000     
   21.0310   16.7741   24.9349 N   0  3  0  0  0  0  0  0  0  0  0  0
   21.9134   17.2955   25.0547 H   0  0  0  0  0  0  0  0  0  0  0  0
   21.1906   16.1448   24.1328 H   0  0  0  0  0  0  0  0  0  0  0  0
   19.8953   17.7306   24.6310 C   0  0  0  0  0  0  0  0  0  0  0  0
   19.7645   18.3823   25.4986 H   0  0  0  0  0  0  0  0  0  0  0  0
   18.9846   17.1398   24.5038 H   0  0  0  0  0  0  0  0  0  0  0  0
   20.1384   18.5850   23.3736 C   0  0  0  0  0  0  0  0  0  0  0  0
   21.0644   19.1585   23.5055 H   0  0  0  0  0  0  0  0  0  0  0  0
   20.2853   17.9257   22.5077 H   0  0  0  0  0  0  0  0  0  0  0  0
   18.9523   19.5412   23.1051 C   0  0  0  0  0  0  0  0  0  0  0  0
   18.8359   20.2337   23.9504 H   0  0  0  0  0  0  0  0  0  0  0  0
   18.0246   18.9540   23.0585 H   0  0  0  0  0  0  0  0  0  0  0  0
   19.0900   20.3465   21.7894 C   0  0  0  0  0  0  0  0  0  0  0  0
   19.1887   19.6540   20.9420 H   0  0  0  0  0  0  0  0  0  0  0  0
   18.1578   20.9042   21.6237 H   0  0  0  0  0  0  0  0  0  0  0  0
   20.2759   21.3404   21.7918 C   0  0  0  0  0  0  0  0  0  0  0  0
   21.2264   20.7972   21.8770 H   0  0  0  0  0  0  0  0  0  0  0  0
   20.2060   21.9999   22.6681 H   0  0  0  0  0  0  0  0  0  0  0  0
   20.3032   22.1973   20.5081 C   0  0  0  0  0  0  0  0  0  0  0  0
   20.4029   21.5670   19.6148 H   0  0  0  0  0  0  0  0  0  0  0  0
   21.1514   22.8940   20.5249 H   0  0  0  0  0  0  0  0  0  0  0  0
   19.3840   22.7891   20.4081 H   0  0  0  0  0  0  0  0  0  0  0  0
   20.7108   15.9712   26.1881 C   0  0  0  0  0  0  0  0  0  0  0  0
   19.7922   15.4030   26.0257 H   0  0  0  0  0  0  0  0  0  0  0  0
   21.5362   15.2866   26.3956 H   0  0  0  0  0  0  0  0  0  0  0  0
   20.5788   16.6556   27.0291 H   0  0  0  0  0  0  0  0  0  0  0  0
  1  2  1  0  0  0  0
  1  3  1  0  0  0  0
  1  4  1  0  0  0  0
  4  5  1  0  0  0  0
  4  6  1  0  0  0  0
  4  7  1  0  0  0  0
  7  8  1  0  0  0  0
  7  9  1  0  0  0  0
  7 10  1  0  0  0  0
 10 11  1  0  0  0  0
 10 12  1  0  0  0  0
 10 13  1  0  0  0  0
 13 14  1  0  0  0  0
 13 15  1  0  0  0  0
 13 16  1  0  0  0  0
 16 17  1  0  0  0  0
 16 18  1  0  0  0  0
 16 19  1  0  0  0  0
 19 20  1  0  0  0  0
 19 21  1  0  0  0  0
 19 22  1  0  0  0  0
  1 23  1  0  0  0  0
 23 24  1  0  0  0  0
 23 25  1  0  0  0  0
 23 26  1  0  0  0  0
M  END
> <VConfSearch Rank>
805

> <Conf_Id>
35

> <Delta U+W>
0.670

> <U+W>
22.512

> <U>
71.348

> <W>
-48.837

> <W(PB)>
-51.150

> <W(SA)>
2.313

> <Valence>
2.262

> <Coulomb>
68.807

> <VdW>
0.280

> <VdW6>
-5.915

> <VdW12>
6.195

> <Bond>
0.164

> <Angle>
0.622

> <Pdih>
1.475

> <Idih>
0.000

> <Tether>
0.000

$$$$
VeraChem MOL file


 26 25  0  0  0  0  0  0  0  0999 V2000     
   22.1076   17.0445   23.9583 N   0  3  0  0  0  0  0  0  0  0  0  0
   21.6454   16.2654   23.4641 H   0  0  0  0  0  0  0  0  0  0  0  0
   21.7165   17.0345   24.9131 H   0  0  0  0  0  0  0  0  0  0  0  0
   21.7881   18.3595   23.2758 C   0  0  0  0  0  0  0  0  0  0  0  0
   22.2112   18.3258   22.2687 H   0  0  0  0  0  0  0  0  0  0  0  0
   22.2876   19.1563   23.8326 H   0  0  0  0  0  0  0  0  0  0  0  0
   20.2789   18.6525   23.1942 C   0  0  0  0  0  0  0  0  0  0  0  0
   19.7791   17.8413   22.6482 H   0  0  0  0  0  0  0  0  0  0  0  0
   19.8625   18.6651   24.2092 H   0  0  0  0  0  0  0  0  0  0  0  0
   20.0050   20.0016   22.4884 C   0  0  0  0  0  0  0  0  0  0  0  0
   20.5003   19.9977   21.5074 H   0  0  0  0  0  0  0  0  0  0  0  0
   20.4636   20.8195   23.0614 H   0  0  0  0  0  0  0  0  0  0  0  0
   18.4994   20.2967   22.2768 C   0  0  0  0  0  0  0  0  0  0  0  0
   18.4055   21.2081   21.6702 H   0  0  0  0  0  0  0  0  0  0  0  0
   18.0444   19.4878   21.6886 H   0  0  0  0  0  0  0  0  0  0  0  0
   17.7136   20.4883   23.5958 C   0  0  0  0  0  0  0  0  0  0  0  0
   18.1985   21.2616   24.2080 H   0  0  0  0  0  0  0  0  0  0  0  0
   17.7273   19.5613   24.1841 H   0  0  0  0  0  0  0  0  0  0  0  0
   16.2469   20.8910   23.3315 C   0  0  0  0  0  0  0  0  0  0  0  0
   16.1903   21.8382   22.7794 H   0  0  0  0  0  0  0  0  0  0  0  0
   15.7038   21.0198   24.2767 H   0  0  0  0  0  0  0  0  0  0  0  0
   15.7260   20.1223   22.7458 H   0  0  0  0  0  0  0  0  0  0  0  0
   23.6148   16.8335   23.9964 C   0  0  0  0  0  0  0  0  0  0  0  0
   24.0782   17.6517   24.5520 H   0  0  0  0  0  0  0  0  0  0  0  0
   23.8311   15.8834   24.4900 H   0  0  0  0  0  0  0  0  0  0  0  0
   24.0008   16.8146   22.9748 H   0  0  0  0  0  0  0  0  0  0  0  0
  1  2  1  0  0  0  0
  1  3  1  0  0  0  0
  1  4  1  0  0  0  0
  4  5  1  0  0  0  0
  4  6  1  0  0  0  0
  4  7  1  0  0  0  0
  7  8  1  0  0  0  0
  7  9  1  0  0  0  0
  7 10  1  0  0  0  0
 10 11  1  0  0  0  0
 10 12  1  0  0  0  0
 10 13  1  0  0  0  0
 13 14  1  0  0  0  0
 13 15  1  0  0  0  0
 13 16  1  0  0  0  0
 16 17  1  0  0  0  0
 16 18  1  0  0  0  0
 16 19  1  0  0  0  0
 19 20  1  0  0  0  0
 19 21  1  0  0  0  0
 19 22  1  0  0  0  0
  1 23  1  0  0  0  0
 23 24  1  0  0  0  0
 23 25  1  0  0  0  0
 23 26  1  0  0  0  0
M  END
> <VConfSearch Rank>
806

> <Conf_Id>
36

> <Delta U+W>
0.662

> <U+W>
22.504

> <U>
71.348

> <W>
-48.844

> <W(PB)>
-51.157

> <W(SA)>
2.313

> <Valence>
2.262

> <Coulomb>
68.807

> <VdW>
0.280

> <VdW6>
-5.916

> <VdW12>
6.195

> <Bond>
0.164

> <Angle>
0.622

> <Pdih>
1.475

> <Idih>
0.000

> <Tether>
0.000

$$$$
VeraChem MOL file


 26 25  0  0  0  0  0  0  0  0999 V2000     
   20.6025   22.0803   23.4855 N   0  3  0  0  0  0  0  0  0  0  0  0
   19.7482   22.3689   22.9837 H   0  0  0  0  0  0  0  0  0  0  0  0
   21.3865   22.4681   22.9380 H   0  0  0  0  0  0  0  0  0  0  0  0
   20.6954   20.5685   23.5335 C   0  0  0  0  0  0  0  0  0  0  0  0
   19.8469   20.2015   24.1157 H   0  0  0  0  0  0  0  0  0  0  0  0
   21.6156   20.3057   24.0614 H   0  0  0  0  0  0  0  0  0  0  0  0
   20.6932   19.9138   22.1386 C   0  0  0  0  0  0  0  0  0  0  0  0
   19.7694   20.1793   21.6075 H   0  0  0  0  0  0  0  0  0  0  0  0
   21.5239   20.3234   21.5486 H   0  0  0  0  0  0  0  0  0  0  0  0
   20.8330   18.3744   22.2008 C   0  0  0  0  0  0  0  0  0  0  0  0
   21.7717   18.1120   22.7084 H   0  0  0  0  0  0  0  0  0  0  0  0
   20.9156   17.9866   21.1760 H   0  0  0  0  0  0  0  0  0  0  0  0
   19.6440   17.6839   22.9118 C   0  0  0  0  0  0  0  0  0  0  0  0
   19.5794   18.0256   23.9535 H   0  0  0  0  0  0  0  0  0  0  0  0
   18.7042   17.9750   22.4225 H   0  0  0  0  0  0  0  0  0  0  0  0
   19.7784   16.1449   22.8916 C   0  0  0  0  0  0  0  0  0  0  0  0
   20.7175   15.8480   23.3793 H   0  0  0  0  0  0  0  0  0  0  0  0
   19.8352   15.7904   21.8528 H   0  0  0  0  0  0  0  0  0  0  0  0
   18.5930   15.4574   23.6023 C   0  0  0  0  0  0  0  0  0  0  0  0
   18.5308   15.7651   24.6543 H   0  0  0  0  0  0  0  0  0  0  0  0
   18.7061   14.3658   23.5771 H   0  0  0  0  0  0  0  0  0  0  0  0
   17.6414   15.7085   23.1159 H   0  0  0  0  0  0  0  0  0  0  0  0
   20.6078   22.6447   24.8994 C   0  0  0  0  0  0  0  0  0  0  0  0
   21.5349   22.3543   25.3985 H   0  0  0  0  0  0  0  0  0  0  0  0
   20.5407   23.7339   24.8506 H   0  0  0  0  0  0  0  0  0  0  0  0
   19.7515   22.2467   25.4483 H   0  0  0  0  0  0  0  0  0  0  0  0
  1  2  1  0  0  0  0
  1  3  1  0  0  0  0
  1  4  1  0  0  0  0
  4  5  1  0  0  0  0
  4  6  1  0  0  0  0
  4  7  1  0  0  0  0
  7  8  1  0  0  0  0
  7  9  1  0  0  0  0
  7 10  1  0  0  0  0
 10 11  1  0  0  0  0
 10 12  1  0  0  0  0
 10 13  1  0  0  0  0
 13 14  1  0  0  0  0
 13 15  1  0  0  0  0
 13 16  1  0  0  0  0
 16 17  1  0  0  0  0
 16 18  1  0  0  0  0
 16 19  1  0  0  0  0
 19 20  1  0  0  0  0
 19 21  1  0  0  0  0
 19 22  1  0  0  0  0
  1 23  1  0  0  0  0
 23 24  1  0  0  0  0
 23 25  1  0  0  0  0
 23 26  1  0  0  0  0
M  END
> <VConfSearch Rank>
807

> <Conf_Id>
46

> <Delta U+W>
0.496

> <U+W>
22.338

> <U>
71.138

> <W>
-48.799

> <W(PB)>
-51.136

> <W(SA)>
2.337

> <Valence>
2.016

> <Coulomb>
68.932

> <VdW>
0.190

> <VdW6>
-5.902

> <VdW12>
6.092

> <Bond>
0.149

> <Angle>
0.477

> <Pdih>
1.390

> <Idih>
0.000

> <Tether>
0.000

$$$$
VeraChem MOL file


 26 25  0  0  0  0  0  0  0  0999 V2000     
   18.8625   16.7219   24.8133 N   0  3  0  0  0  0  0  0  0  0  0  0
   18.5578   15.9064   24.2594 H   0  0  0  0  0  0  0  0  0  0  0  0
   17.9932   17.1787   25.1301 H   0  0  0  0  0  0  0  0  0  0  0  0
   19.6667   17.6710   23.9479 C   0  0  0  0  0  0  0  0  0  0  0  0
   20.5701   17.1472   23.6256 H   0  0  0  0  0  0  0  0  0  0  0  0
   19.9630   18.5186   24.5704 H   0  0  0  0  0  0  0  0  0  0  0  0
   18.8922   18.1750   22.7148 C   0  0  0  0  0  0  0  0  0  0  0  0
   18.5622   17.3122   22.1210 H   0  0  0  0  0  0  0  0  0  0  0  0
   17.9835   18.6998   23.0386 H   0  0  0  0  0  0  0  0  0  0  0  0
   19.7393   19.1077   21.8172 C   0  0  0  0  0  0  0  0  0  0  0  0
   19.1586   19.3528   20.9171 H   0  0  0  0  0  0  0  0  0  0  0  0
   20.6340   18.5708   21.4724 H   0  0  0  0  0  0  0  0  0  0  0  0
   20.1575   20.4187   22.5258 C   0  0  0  0  0  0  0  0  0  0  0  0
   19.2627   20.9364   22.8985 H   0  0  0  0  0  0  0  0  0  0  0  0
   20.7807   20.1906   23.4008 H   0  0  0  0  0  0  0  0  0  0  0  0
   20.9381   21.3586   21.5800 C   0  0  0  0  0  0  0  0  0  0  0  0
   20.3203   21.6010   20.7039 H   0  0  0  0  0  0  0  0  0  0  0  0
   21.8341   20.8455   21.2034 H   0  0  0  0  0  0  0  0  0  0  0  0
   21.3560   22.6651   22.2882 C   0  0  0  0  0  0  0  0  0  0  0  0
   20.4782   23.2182   22.6468 H   0  0  0  0  0  0  0  0  0  0  0  0
   21.9082   23.3190   21.6009 H   0  0  0  0  0  0  0  0  0  0  0  0
   22.0045   22.4576   23.1493 H   0  0  0  0  0  0  0  0  0  0  0  0
   19.6968   16.2758   26.0062 C   0  0  0  0  0  0  0  0  0  0  0  0
   19.1062   15.5928   26.6209 H   0  0  0  0  0  0  0  0  0  0  0  0
   20.5937   15.7666   25.6468 H   0  0  0  0  0  0  0  0  0  0  0  0
   19.9789   17.1515   26.5948 H   0  0  0  0  0  0  0  0  0  0  0  0
  1  2  1  0  0  0  0
  1  3  1  0  0  0  0
  1  4  1  0  0  0  0
  4  5  1  0  0  0  0
  4  6  1  0  0  0  0
  4  7  1  0  0  0  0
  7  8  1  0  0  0  0
  7  9  1  0  0  0  0
  7 10  1  0  0  0  0
 10 11  1  0  0  0  0
 10 12  1  0  0  0  0
 10 13  1  0  0  0  0
 13 14  1  0  0  0  0
 13 15  1  0  0  0  0
 13 16  1  0  0  0  0
 16 17  1  0  0  0  0
 16 18  1  0  0  0  0
 16 19  1  0  0  0  0
 19 20  1  0  0  0  0
 19 21  1  0  0  0  0
 19 22  1  0  0  0  0
  1 23  1  0  0  0  0
 23 24  1  0  0  0  0
 23 25  1  0  0  0  0
 23 26  1  0  0  0  0
M  END
> <VConfSearch Rank>
808

> <Conf_Id>
45

> <Delta U+W>
0.471

> <U+W>
22.313

> <U>
71.138

> <W>
-48.825

> <W(PB)>
-51.169

> <W(SA)>
2.344

> <Valence>
2.016

> <Coulomb>
68.932

> <VdW>
0.190

> <VdW6>
-5.902

> <VdW12>
6.092

> <Bond>
0.149

> <Angle>
0.477

> <Pdih>
1.390

> <Idih>
0.000

> <Tether>
0.000

$$$$
VeraChem MOL file


 26 25  0  0  0  0  0  0  0  0999 V2000     
   22.5009   18.5570   22.5130 N   0  3  0  0  0  0  0  0  0  0  0  0
   22.0732   19.1863   21.8171 H   0  0  0  0  0  0  0  0  0  0  0  0
   22.1479   17.6141   22.2873 H   0  0  0  0  0  0  0  0  0  0  0  0
   22.0679   18.9555   23.9107 C   0  0  0  0  0  0  0  0  0  0  0  0
   22.4512   19.9596   24.1091 H   0  0  0  0  0  0  0  0  0  0  0  0
   22.5418   18.2645   24.6125 H   0  0  0  0  0  0  0  0  0  0  0  0
   20.5413   18.9320   24.1220 C   0  0  0  0  0  0  0  0  0  0  0  0
   20.1671   17.9200   23.9222 H   0  0  0  0  0  0  0  0  0  0  0  0
   20.3342   19.1412   25.1799 H   0  0  0  0  0  0  0  0  0  0  0  0
   19.8023   19.9688   23.2392 C   0  0  0  0  0  0  0  0  0  0  0  0
   19.9270   19.7181   22.1773 H   0  0  0  0  0  0  0  0  0  0  0  0
   20.2675   20.9542   23.3814 H   0  0  0  0  0  0  0  0  0  0  0  0
   18.2923   20.0883   23.5611 C   0  0  0  0  0  0  0  0  0  0  0  0
   18.1609   20.3630   24.6169 H   0  0  0  0  0  0  0  0  0  0  0  0
   17.8754   20.9181   22.9736 H   0  0  0  0  0  0  0  0  0  0  0  0
   17.4901   18.8016   23.2531 C   0  0  0  0  0  0  0  0  0  0  0  0
   17.8404   17.9754   23.8861 H   0  0  0  0  0  0  0  0  0  0  0  0
   17.6602   18.4985   22.2105 H   0  0  0  0  0  0  0  0  0  0  0  0
   15.9776   19.0040   23.4863 C   0  0  0  0  0  0  0  0  0  0  0  0
   15.7724   19.2789   24.5291 H   0  0  0  0  0  0  0  0  0  0  0  0
   15.4246   18.0817   23.2661 H   0  0  0  0  0  0  0  0  0  0  0  0
   15.5804   19.7969   22.8392 H   0  0  0  0  0  0  0  0  0  0  0  0
   24.0190   18.5990   22.4088 C   0  0  0  0  0  0  0  0  0  0  0  0
   24.4480   17.9025   23.1325 H   0  0  0  0  0  0  0  0  0  0  0  0
   24.3169   18.3108   21.3982 H   0  0  0  0  0  0  0  0  0  0  0  0
   24.3657   19.6129   22.6206 H   0  0  0  0  0  0  0  0  0  0  0  0
  1  2  1  0  0  0  0
  1  3  1  0  0  0  0
  1  4  1  0  0  0  0
  4  5  1  0  0  0  0
  4  6  1  0  0  0  0
  4  7  1  0  0  0  0
  7  8  1  0  0  0  0
  7  9  1  0  0  0  0
  7 10  1  0  0  0  0
 10 11  1  0  0  0  0
 10 12  1  0  0  0  0
 10 13  1  0  0  0  0
 13 14  1  0  0  0  0
 13 15  1  0  0  0  0
 13 16  1  0  0  0  0
 16 17  1  0  0  0  0
 16 18  1  0  0  0  0
 16 19  1  0  0  0  0
 19 20  1  0  0  0  0
 19 21  1  0  0  0  0
 19 22  1  0  0  0  0
  1 23  1  0  0  0  0
 23 24  1  0  0  0  0
 23 25  1  0  0  0  0
 23 26  1  0  0  0  0
M  END
> <VConfSearch Rank>
809

> <Conf_Id>
143

> <Delta U+W>
0.915

> <U+W>
22.757

> <U>
71.994

> <W>
-49.237

> <W(PB)>
-51.537

> <W(SA)>
2.300

> <Valence>
2.376

> <Coulomb>
69.315

> <VdW>
0.303

> <VdW6>
-6.508

> <VdW12>
6.810

> <Bond>
0.182

> <Angle>
0.660

> <Pdih>
1.534

> <Idih>
0.000

> <Tether>
0.000

$$$$
VeraChem MOL file


 26 25  0  0  0  0  0  0  0  0999 V2000     
   18.2152   17.1903   22.9735 N   0  3  0  0  0  0  0  0  0  0  0  0
   17.9379   17.5427   23.9019 H   0  0  0  0  0  0  0  0  0  0  0  0
   18.8902   16.4316   23.1562 H   0  0  0  0  0  0  0  0  0  0  0  0
   18.8765   18.2951   22.1720 C   0  0  0  0  0  0  0  0  0  0  0  0
   18.1369   19.0826   22.0071 H   0  0  0  0  0  0  0  0  0  0  0  0
   19.1508   17.8761   21.2005 H   0  0  0  0  0  0  0  0  0  0  0  0
   20.1302   18.8924   22.8414 C   0  0  0  0  0  0  0  0  0  0  0  0
   20.8597   18.0945   23.0336 H   0  0  0  0  0  0  0  0  0  0  0  0
   20.5932   19.5842   22.1272 H   0  0  0  0  0  0  0  0  0  0  0  0
   19.8060   19.6480   24.1533 C   0  0  0  0  0  0  0  0  0  0  0  0
   19.2482   18.9863   24.8288 H   0  0  0  0  0  0  0  0  0  0  0  0
   19.1373   20.4913   23.9314 H   0  0  0  0  0  0  0  0  0  0  0  0
   21.0520   20.1669   24.9171 C   0  0  0  0  0  0  0  0  0  0  0  0
   20.6976   20.6415   25.8426 H   0  0  0  0  0  0  0  0  0  0  0  0
   21.6762   19.3221   25.2397 H   0  0  0  0  0  0  0  0  0  0  0  0
   21.9088   21.2019   24.1428 C   0  0  0  0  0  0  0  0  0  0  0  0
   22.2983   21.9392   24.8587 H   0  0  0  0  0  0  0  0  0  0  0  0
   21.2822   21.7674   23.4391 H   0  0  0  0  0  0  0  0  0  0  0  0
   23.1140   20.5726   23.4050 C   0  0  0  0  0  0  0  0  0  0  0  0
   22.8019   19.8374   22.6553 H   0  0  0  0  0  0  0  0  0  0  0  0
   23.7862   20.0690   24.1118 H   0  0  0  0  0  0  0  0  0  0  0  0
   23.6952   21.3476   22.8887 H   0  0  0  0  0  0  0  0  0  0  0  0
   17.0034   16.6584   22.2212 C   0  0  0  0  0  0  0  0  0  0  0  0
   17.3257   16.2619   21.2558 H   0  0  0  0  0  0  0  0  0  0  0  0
   16.5370   15.8645   22.8088 H   0  0  0  0  0  0  0  0  0  0  0  0
   16.2905   17.4715   22.0679 H   0  0  0  0  0  0  0  0  0  0  0  0
  1  2  1  0  0  0  0
  1  3  1  0  0  0  0
  1  4  1  0  0  0  0
  4  5  1  0  0  0  0
  4  6  1  0  0  0  0
  4  7  1  0  0  0  0
  7  8  1  0  0  0  0
  7  9  1  0  0  0  0
  7 10  1  0  0  0  0
 10 11  1  0  0  0  0
 10 12  1  0  0  0  0
 10 13  1  0  0  0  0
 13 14  1  0  0  0  0
 13 15  1  0  0  0  0
 13 16  1  0  0  0  0
 16 17  1  0  0  0  0
 16 18  1  0  0  0  0
 16 19  1  0  0  0  0
 19 20  1  0  0  0  0
 19 21  1  0  0  0  0
 19 22  1  0  0  0  0
  1 23  1  0  0  0  0
 23 24  1  0  0  0  0
 23 25  1  0  0  0  0
 23 26  1  0  0  0  0
M  END
> <VConfSearch Rank>
810

> <Conf_Id>
76

> <Delta U+W>
3.468

> <U+W>
25.310

> <U>
74.594

> <W>
-49.283

> <W(PB)>
-51.537

> <W(SA)>
2.253

> <Valence>
4.886

> <Coulomb>
69.332

> <VdW>
0.376

> <VdW6>
-7.329

> <VdW12>
7.705

> <Bond>
0.232

> <Angle>
1.251

> <Pdih>
3.403

> <Idih>
0.000

> <Tether>
0.000

$$$$
VeraChem MOL file


 26 25  0  0  0  0  0  0  0  0999 V2000     
   21.2904   21.2745   22.1606 N   0  3  0  0  0  0  0  0  0  0  0  0
   20.3326   21.6585   22.1567 H   0  0  0  0  0  0  0  0  0  0  0  0
   21.4555   20.9385   21.1990 H   0  0  0  0  0  0  0  0  0  0  0  0
   21.3885   20.1229   23.1409 C   0  0  0  0  0  0  0  0  0  0  0  0
   21.2007   20.5182   24.1424 H   0  0  0  0  0  0  0  0  0  0  0  0
   22.4120   19.7409   23.1079 H   0  0  0  0  0  0  0  0  0  0  0  0
   20.3997   18.9817   22.8411 C   0  0  0  0  0  0  0  0  0  0  0  0
   19.3784   19.3785   22.8510 H   0  0  0  0  0  0  0  0  0  0  0  0
   20.5827   18.6006   21.8277 H   0  0  0  0  0  0  0  0  0  0  0  0
   20.5464   17.8273   23.8616 C   0  0  0  0  0  0  0  0  0  0  0  0
   20.4240   18.2040   24.8866 H   0  0  0  0  0  0  0  0  0  0  0  0
   21.5753   17.4463   23.7997 H   0  0  0  0  0  0  0  0  0  0  0  0
   19.5706   16.6484   23.6073 C   0  0  0  0  0  0  0  0  0  0  0  0
   19.3423   16.5659   22.5357 H   0  0  0  0  0  0  0  0  0  0  0  0
   20.0863   15.7148   23.8719 H   0  0  0  0  0  0  0  0  0  0  0  0
   18.2573   16.7034   24.4293 C   0  0  0  0  0  0  0  0  0  0  0  0
   18.4929   16.6791   25.5025 H   0  0  0  0  0  0  0  0  0  0  0  0
   17.6803   15.7906   24.2247 H   0  0  0  0  0  0  0  0  0  0  0  0
   17.3670   17.9290   24.1282 C   0  0  0  0  0  0  0  0  0  0  0  0
   17.1680   18.0201   23.0526 H   0  0  0  0  0  0  0  0  0  0  0  0
   17.8348   18.8572   24.4784 H   0  0  0  0  0  0  0  0  0  0  0  0
   16.4011   17.8363   24.6413 H   0  0  0  0  0  0  0  0  0  0  0  0
   22.2974   22.3554   22.5287 C   0  0  0  0  0  0  0  0  0  0  0  0
   22.0825   22.7182   23.5363 H   0  0  0  0  0  0  0  0  0  0  0  0
   23.3047   21.9346   22.4938 H   0  0  0  0  0  0  0  0  0  0  0  0
   22.2164   23.1784   21.8152 H   0  0  0  0  0  0  0  0  0  0  0  0
  1  2  1  0  0  0  0
  1  3  1  0  0  0  0
  1  4  1  0  0  0  0
  4  5  1  0  0  0  0
  4  6  1  0  0  0  0
  4  7  1  0  0  0  0
  7  8  1  0  0  0  0
  7  9  1  0  0  0  0
  7 10  1  0  0  0  0
 10 11  1  0  0  0  0
 10 12  1  0  0  0  0
 10 13  1  0  0  0  0
 13 14  1  0  0  0  0
 13 15  1  0  0  0  0
 13 16  1  0  0  0  0
 16 17  1  0  0  0  0
 16 18  1  0  0  0  0
 16 19  1  0  0  0  0
 19 20  1  0  0  0  0
 19 21  1  0  0  0  0
 19 22  1  0  0  0  0
  1 23  1  0  0  0  0
 23 24  1  0  0  0  0
 23 25  1  0  0  0  0
 23 26  1  0  0  0  0
M  END
> <VConfSearch Rank>
811

> <Conf_Id>
123

> <Delta U+W>
3.101

> <U+W>
24.943

> <U>
74.070

> <W>
-49.127

> <W(PB)>
-51.421

> <W(SA)>
2.295

> <Valence>
4.690

> <Coulomb>
69.115

> <VdW>
0.266

> <VdW6>
-6.809

> <VdW12>
7.075

> <Bond>
0.212

> <Angle>
1.133

> <Pdih>
3.345

> <Idih>
0.000

> <Tether>
0.000

$$$$
VeraChem MOL file


 26 25  0  0  0  0  0  0  0  0999 V2000     
   20.1724   21.6962   22.9030 N   0  3  0  0  0  0  0  0  0  0  0  0
   20.6777   21.7723   22.0066 H   0  0  0  0  0  0  0  0  0  0  0  0
   20.8989   21.5379   23.6173 H   0  0  0  0  0  0  0  0  0  0  0  0
   19.2152   20.5206   22.8642 C   0  0  0  0  0  0  0  0  0  0  0  0
   18.4656   20.7315   22.0972 H   0  0  0  0  0  0  0  0  0  0  0  0
   18.7082   20.4663   23.8309 H   0  0  0  0  0  0  0  0  0  0  0  0
   19.8929   19.1704   22.5580 C   0  0  0  0  0  0  0  0  0  0  0  0
   19.1096   18.4129   22.4429 H   0  0  0  0  0  0  0  0  0  0  0  0
   20.4058   19.2314   21.5890 H   0  0  0  0  0  0  0  0  0  0  0  0
   20.8962   18.7422   23.6594 C   0  0  0  0  0  0  0  0  0  0  0  0
   20.4157   18.7719   24.6472 H   0  0  0  0  0  0  0  0  0  0  0  0
   21.7110   19.4776   23.6950 H   0  0  0  0  0  0  0  0  0  0  0  0
   21.5192   17.3430   23.4138 C   0  0  0  0  0  0  0  0  0  0  0  0
   21.5703   17.1314   22.3369 H   0  0  0  0  0  0  0  0  0  0  0  0
   22.5620   17.3670   23.7597 H   0  0  0  0  0  0  0  0  0  0  0  0
   20.8106   16.1790   24.1530 C   0  0  0  0  0  0  0  0  0  0  0  0
   20.8556   16.3498   25.2377 H   0  0  0  0  0  0  0  0  0  0  0  0
   21.3746   15.2540   23.9680 H   0  0  0  0  0  0  0  0  0  0  0  0
   19.3419   15.9558   23.7305 C   0  0  0  0  0  0  0  0  0  0  0  0
   19.2557   15.8391   22.6424 H   0  0  0  0  0  0  0  0  0  0  0  0
   18.7049   16.7915   24.0449 H   0  0  0  0  0  0  0  0  0  0  0  0
   18.9426   15.0463   24.1978 H   0  0  0  0  0  0  0  0  0  0  0  0
   19.4065   22.9788   23.1960 C   0  0  0  0  0  0  0  0  0  0  0  0
   18.9070   22.8859   24.1629 H   0  0  0  0  0  0  0  0  0  0  0  0
   20.1070   23.8165   23.2216 H   0  0  0  0  0  0  0  0  0  0  0  0
   18.6653   23.1418   22.4106 H   0  0  0  0  0  0  0  0  0  0  0  0
  1  2  1  0  0  0  0
  1  3  1  0  0  0  0
  1  4  1  0  0  0  0
  4  5  1  0  0  0  0
  4  6  1  0  0  0  0
  4  7  1  0  0  0  0
  7  8  1  0  0  0  0
  7  9  1  0  0  0  0
  7 10  1  0  0  0  0
 10 11  1  0  0  0  0
 10 12  1  0  0  0  0
 10 13  1  0  0  0  0
 13 14  1  0  0  0  0
 13 15  1  0  0  0  0
 13 16  1  0  0  0  0
 16 17  1  0  0  0  0
 16 18  1  0  0  0  0
 16 19  1  0  0  0  0
 19 20  1  0  0  0  0
 19 21  1  0  0  0  0
 19 22  1  0  0  0  0
  1 23  1  0  0  0  0
 23 24  1  0  0  0  0
 23 25  1  0  0  0  0
 23 26  1  0  0  0  0
M  END
> <VConfSearch Rank>
812

> <Conf_Id>
111

> <Delta U+W>
3.383

> <U+W>
25.225

> <U>
74.516

> <W>
-49.292

> <W(PB)>
-51.558

> <W(SA)>
2.266

> <Valence>
4.842

> <Coulomb>
69.333

> <VdW>
0.342

> <VdW6>
-7.369

> <VdW12>
7.711

> <Bond>
0.232

> <Angle>
1.153

> <Pdih>
3.457

> <Idih>
0.000

> <Tether>
0.000

$$$$
VeraChem MOL file


 26 25  0  0  0  0  0  0  0  0999 V2000     
   17.7082   19.7150   23.2426 N   0  3  0  0  0  0  0  0  0  0  0  0
   17.1365   19.2150   22.5441 H   0  0  0  0  0  0  0  0  0  0  0  0
   18.4356   20.2082   22.7034 H   0  0  0  0  0  0  0  0  0  0  0  0
   18.3511   18.7256   24.1947 C   0  0  0  0  0  0  0  0  0  0  0  0
   17.5488   18.2180   24.7362 H   0  0  0  0  0  0  0  0  0  0  0  0
   18.9431   19.2908   24.9184 H   0  0  0  0  0  0  0  0  0  0  0  0
   19.2415   17.6762   23.4972 C   0  0  0  0  0  0  0  0  0  0  0  0
   19.6232   16.9794   24.2553 H   0  0  0  0  0  0  0  0  0  0  0  0
   18.6225   17.0771   22.8163 H   0  0  0  0  0  0  0  0  0  0  0  0
   20.4336   18.2770   22.7099 C   0  0  0  0  0  0  0  0  0  0  0  0
   20.0622   18.9083   21.8918 H   0  0  0  0  0  0  0  0  0  0  0  0
   20.9773   17.4505   22.2343 H   0  0  0  0  0  0  0  0  0  0  0  0
   21.4056   19.0917   23.6013 C   0  0  0  0  0  0  0  0  0  0  0  0
   20.8581   19.9046   24.0961 H   0  0  0  0  0  0  0  0  0  0  0  0
   21.7980   18.4509   24.4029 H   0  0  0  0  0  0  0  0  0  0  0  0
   22.5848   19.7162   22.8162 C   0  0  0  0  0  0  0  0  0  0  0  0
   23.1541   20.3663   23.4953 H   0  0  0  0  0  0  0  0  0  0  0  0
   22.1985   20.3680   22.0202 H   0  0  0  0  0  0  0  0  0  0  0  0
   23.5466   18.6687   22.2101 C   0  0  0  0  0  0  0  0  0  0  0  0
   23.0567   18.0739   21.4295 H   0  0  0  0  0  0  0  0  0  0  0  0
   23.9214   17.9834   22.9814 H   0  0  0  0  0  0  0  0  0  0  0  0
   24.4128   19.1630   21.7517 H   0  0  0  0  0  0  0  0  0  0  0  0
   16.8559   20.7065   24.0221 C   0  0  0  0  0  0  0  0  0  0  0  0
   16.4002   21.4130   23.3248 H   0  0  0  0  0  0  0  0  0  0  0  0
   16.0754   20.1638   24.5600 H   0  0  0  0  0  0  0  0  0  0  0  0
   17.4888   21.2443   24.7314 H   0  0  0  0  0  0  0  0  0  0  0  0
  1  2  1  0  0  0  0
  1  3  1  0  0  0  0
  1  4  1  0  0  0  0
  4  5  1  0  0  0  0
  4  6  1  0  0  0  0
  4  7  1  0  0  0  0
  7  8  1  0  0  0  0
  7  9  1  0  0  0  0
  7 10  1  0  0  0  0
 10 11  1  0  0  0  0
 10 12  1  0  0  0  0
 10 13  1  0  0  0  0
 13 14  1  0  0  0  0
 13 15  1  0  0  0  0
 13 16  1  0  0  0  0
 16 17  1  0  0  0  0
 16 18  1  0  0  0  0
 16 19  1  0  0  0  0
 19 20  1  0  0  0  0
 19 21  1  0  0  0  0
 19 22  1  0  0  0  0
  1 23  1  0  0  0  0
 23 24  1  0  0  0  0
 23 25  1  0  0  0  0
 23 26  1  0  0  0  0
M  END
> <VConfSearch Rank>
813

> <Conf_Id>
126

> <Delta U+W>
1.519

> <U+W>
23.361

> <U>
72.579

> <W>
-49.218

> <W(PB)>
-51.496

> <W(SA)>
2.279

> <Valence>
2.678

> <Coulomb>
69.622

> <VdW>
0.279

> <VdW6>
-7.328

> <VdW12>
7.608

> <Bond>
0.212

> <Angle>
0.911

> <Pdih>
1.555

> <Idih>
0.000

> <Tether>
0.000

$$$$
VeraChem MOL file


 26 25  0  0  0  0  0  0  0  0999 V2000     
   18.0824   20.1574   24.1539 N   0  3  0  0  0  0  0  0  0  0  0  0
   18.8198   20.6668   23.6440 H   0  0  0  0  0  0  0  0  0  0  0  0
   18.1508   20.4768   25.1326 H   0  0  0  0  0  0  0  0  0  0  0  0
   18.3346   18.6645   24.0737 C   0  0  0  0  0  0  0  0  0  0  0  0
   18.2506   18.3646   23.0266 H   0  0  0  0  0  0  0  0  0  0  0  0
   17.5407   18.1641   24.6340 H   0  0  0  0  0  0  0  0  0  0  0  0
   19.7061   18.2321   24.6326 C   0  0  0  0  0  0  0  0  0  0  0  0
   19.7546   18.4868   25.6997 H   0  0  0  0  0  0  0  0  0  0  0  0
   19.7795   17.1379   24.5765 H   0  0  0  0  0  0  0  0  0  0  0  0
   20.9179   18.8631   23.9007 C   0  0  0  0  0  0  0  0  0  0  0  0
   21.8331   18.5127   24.3952 H   0  0  0  0  0  0  0  0  0  0  0  0
   20.9034   19.9541   24.0239 H   0  0  0  0  0  0  0  0  0  0  0  0
   20.9742   18.5063   22.3932 C   0  0  0  0  0  0  0  0  0  0  0  0
   21.0171   17.4150   22.2725 H   0  0  0  0  0  0  0  0  0  0  0  0
   20.0489   18.8349   21.9019 H   0  0  0  0  0  0  0  0  0  0  0  0
   22.1678   19.1548   21.6507 C   0  0  0  0  0  0  0  0  0  0  0  0
   22.1235   20.2476   21.7577 H   0  0  0  0  0  0  0  0  0  0  0  0
   22.0677   18.9478   20.5760 H   0  0  0  0  0  0  0  0  0  0  0  0
   23.5451   18.6406   22.1285 C   0  0  0  0  0  0  0  0  0  0  0  0
   23.6031   17.5464   22.0626 H   0  0  0  0  0  0  0  0  0  0  0  0
   23.7489   18.9344   23.1655 H   0  0  0  0  0  0  0  0  0  0  0  0
   24.3473   19.0567   21.5054 H   0  0  0  0  0  0  0  0  0  0  0  0
   16.7115   20.4837   23.5783 C   0  0  0  0  0  0  0  0  0  0  0  0
   16.6751   20.1651   22.5342 H   0  0  0  0  0  0  0  0  0  0  0  0
   15.9464   19.9570   24.1529 H   0  0  0  0  0  0  0  0  0  0  0  0
   16.5436   21.5612   23.6414 H   0  0  0  0  0  0  0  0  0  0  0  0
  1  2  1  0  0  0  0
  1  3  1  0  0  0  0
  1  4  1  0  0  0  0
  4  5  1  0  0  0  0
  4  6  1  0  0  0  0
  4  7  1  0  0  0  0
  7  8  1  0  0  0  0
  7  9  1  0  0  0  0
  7 10  1  0  0  0  0
 10 11  1  0  0  0  0
 10 12  1  0  0  0  0
 10 13  1  0  0  0  0
 13 14  1  0  0  0  0
 13 15  1  0  0  0  0
 13 16  1  0  0  0  0
 16 17  1  0  0  0  0
 16 18  1  0  0  0  0
 16 19  1  0  0  0  0
 19 20  1  0  0  0  0
 19 21  1  0  0  0  0
 19 22  1  0  0  0  0
  1 23  1  0  0  0  0
 23 24  1  0  0  0  0
 23 25  1  0  0  0  0
 23 26  1  0  0  0  0
M  END
> <VConfSearch Rank>
814

> <Conf_Id>
134

> <Delta U+W>
1.464

> <U+W>
23.306

> <U>
72.579

> <W>
-49.273

> <W(PB)>
-51.540

> <W(SA)>
2.267

> <Valence>
2.677

> <Coulomb>
69.622

> <VdW>
0.280

> <VdW6>
-7.328

> <VdW12>
7.608

> <Bond>
0.212

> <Angle>
0.911

> <Pdih>
1.555

> <Idih>
0.000

> <Tether>
0.000

$$$$
VeraChem MOL file


 26 25  0  0  0  0  0  0  0  0999 V2000     
   19.4136   19.1058   26.0335 N   0  3  0  0  0  0  0  0  0  0  0  0
   20.2655   19.6727   26.1661 H   0  0  0  0  0  0  0  0  0  0  0  0
   19.6748   18.1477   26.3141 H   0  0  0  0  0  0  0  0  0  0  0  0
   18.9921   19.1275   24.5779 C   0  0  0  0  0  0  0  0  0  0  0  0
   18.7323   20.1572   24.3194 H   0  0  0  0  0  0  0  0  0  0  0  0
   18.0950   18.5110   24.4796 H   0  0  0  0  0  0  0  0  0  0  0  0
   20.0820   18.6126   23.6206 C   0  0  0  0  0  0  0  0  0  0  0  0
   20.9831   19.2272   23.7413 H   0  0  0  0  0  0  0  0  0  0  0  0
   20.3515   17.5837   23.8933 H   0  0  0  0  0  0  0  0  0  0  0  0
   19.6047   18.6534   22.1498 C   0  0  0  0  0  0  0  0  0  0  0  0
   19.3720   19.6877   21.8633 H   0  0  0  0  0  0  0  0  0  0  0  0
   18.6602   18.0980   22.0660 H   0  0  0  0  0  0  0  0  0  0  0  0
   20.6206   18.0424   21.1500 C   0  0  0  0  0  0  0  0  0  0  0  0
   20.7551   16.9772   21.3833 H   0  0  0  0  0  0  0  0  0  0  0  0
   20.1857   18.0757   20.1415 H   0  0  0  0  0  0  0  0  0  0  0  0
   22.0118   18.7258   21.1177 C   0  0  0  0  0  0  0  0  0  0  0  0
   22.6382   18.2080   20.3780 H   0  0  0  0  0  0  0  0  0  0  0  0
   22.5206   18.5979   22.0825 H   0  0  0  0  0  0  0  0  0  0  0  0
   21.9516   20.2270   20.7544 C   0  0  0  0  0  0  0  0  0  0  0  0
   21.4297   20.3818   19.8012 H   0  0  0  0  0  0  0  0  0  0  0  0
   22.9639   20.6391   20.6537 H   0  0  0  0  0  0  0  0  0  0  0  0
   21.4345   20.8079   21.5282 H   0  0  0  0  0  0  0  0  0  0  0  0
   18.2826   19.6288   26.9082 C   0  0  0  0  0  0  0  0  0  0  0  0
   17.4036   18.9941   26.7762 H   0  0  0  0  0  0  0  0  0  0  0  0
   18.5991   19.6077   27.9535 H   0  0  0  0  0  0  0  0  0  0  0  0
   18.0465   20.6540   26.6150 H   0  0  0  0  0  0  0  0  0  0  0  0
  1  2  1  0  0  0  0
  1  3  1  0  0  0  0
  1  4  1  0  0  0  0
  4  5  1  0  0  0  0
  4  6  1  0  0  0  0
  4  7  1  0  0  0  0
  7  8  1  0  0  0  0
  7  9  1  0  0  0  0
  7 10  1  0  0  0  0
 10 11  1  0  0  0  0
 10 12  1  0  0  0  0
 10 13  1  0  0  0  0
 13 14  1  0  0  0  0
 13 15  1  0  0  0  0
 13 16  1  0  0  0  0
 16 17  1  0  0  0  0
 16 18  1  0  0  0  0
 16 19  1  0  0  0  0
 19 20  1  0  0  0  0
 19 21  1  0  0  0  0
 19 22  1  0  0  0  0
  1 23  1  0  0  0  0
 23 24  1  0  0  0  0
 23 25  1  0  0  0  0
 23 26  1  0  0  0  0
M  END
> <VConfSearch Rank>
815

> <Conf_Id>
30

> <Delta U+W>
0.910

> <U+W>
22.752

> <U>
71.870

> <W>
-49.118

> <W(PB)>
-51.409

> <W(SA)>
2.290

> <Valence>
2.682

> <Coulomb>
68.933

> <VdW>
0.255

> <VdW6>
-6.833

> <VdW12>
7.088

> <Bond>
0.205

> <Angle>
1.003

> <Pdih>
1.473

> <Idih>
0.000

> <Tether>
0.000

$$$$
VeraChem MOL file


 26 25  0  0  0  0  0  0  0  0999 V2000     
   19.3754   17.4689   21.1067 N   0  3  0  0  0  0  0  0  0  0  0  0
   20.0335   17.8436   20.4058 H   0  0  0  0  0  0  0  0  0  0  0  0
   18.5258   18.0485   21.0233 H   0  0  0  0  0  0  0  0  0  0  0  0
   19.9631   17.5991   22.4976 C   0  0  0  0  0  0  0  0  0  0  0  0
   20.8620   16.9791   22.5411 H   0  0  0  0  0  0  0  0  0  0  0  0
   19.2348   17.2000   23.2081 H   0  0  0  0  0  0  0  0  0  0  0  0
   20.3151   19.0490   22.8766 C   0  0  0  0  0  0  0  0  0  0  0  0
   21.0348   19.4517   22.1516 H   0  0  0  0  0  0  0  0  0  0  0  0
   19.4095   19.6653   22.8117 H   0  0  0  0  0  0  0  0  0  0  0  0
   20.9111   19.1297   24.3017 C   0  0  0  0  0  0  0  0  0  0  0  0
   21.7693   18.4465   24.3684 H   0  0  0  0  0  0  0  0  0  0  0  0
   20.1776   18.7636   25.0324 H   0  0  0  0  0  0  0  0  0  0  0  0
   21.3876   20.5518   24.6961 C   0  0  0  0  0  0  0  0  0  0  0  0
   21.8310   20.5087   25.7005 H   0  0  0  0  0  0  0  0  0  0  0  0
   22.2007   20.8558   24.0224 H   0  0  0  0  0  0  0  0  0  0  0  0
   20.2903   21.6468   24.6799 C   0  0  0  0  0  0  0  0  0  0  0  0
   19.9168   21.7955   23.6580 H   0  0  0  0  0  0  0  0  0  0  0  0
   20.7463   22.6025   24.9740 H   0  0  0  0  0  0  0  0  0  0  0  0
   19.1080   21.3471   25.6294 C   0  0  0  0  0  0  0  0  0  0  0  0
   18.5463   20.4621   25.3056 H   0  0  0  0  0  0  0  0  0  0  0  0
   18.4083   22.1925   25.6509 H   0  0  0  0  0  0  0  0  0  0  0  0
   19.4592   21.1758   26.6552 H   0  0  0  0  0  0  0  0  0  0  0  0
   19.0570   16.0093   20.8135 C   0  0  0  0  0  0  0  0  0  0  0  0
   18.6348   15.9295   19.8093 H   0  0  0  0  0  0  0  0  0  0  0  0
   19.9757   15.4219   20.8751 H   0  0  0  0  0  0  0  0  0  0  0  0
   18.3347   15.6449   21.5473 H   0  0  0  0  0  0  0  0  0  0  0  0
  1  2  1  0  0  0  0
  1  3  1  0  0  0  0
  1  4  1  0  0  0  0
  4  5  1  0  0  0  0
  4  6  1  0  0  0  0
  4  7  1  0  0  0  0
  7  8  1  0  0  0  0
  7  9  1  0  0  0  0
  7 10  1  0  0  0  0
 10 11  1  0  0  0  0
 10 12  1  0  0  0  0
 10 13  1  0  0  0  0
 13 14  1  0  0  0  0
 13 15  1  0  0  0  0
 13 16  1  0  0  0  0
 16 17  1  0  0  0  0
 16 18  1  0  0  0  0
 16 19  1  0  0  0  0
 19 20  1  0  0  0  0
 19 21  1  0  0  0  0
 19 22  1  0  0  0  0
  1 23  1  0  0  0  0
 23 24  1  0  0  0  0
 23 25  1  0  0  0  0
 23 26  1  0  0  0  0
M  END
> <VConfSearch Rank>
816

> <Conf_Id>
29

> <Delta U+W>
0.886

> <U+W>
22.729

> <U>
71.870

> <W>
-49.141

> <W(PB)>
-51.404

> <W(SA)>
2.262

> <Valence>
2.682

> <Coulomb>
68.933

> <VdW>
0.255

> <VdW6>
-6.833

> <VdW12>
7.088

> <Bond>
0.205

> <Angle>
1.003

> <Pdih>
1.473

> <Idih>
0.000

> <Tether>
0.000

$$$$
VeraChem MOL file


 26 25  0  0  0  0  0  0  0  0999 V2000     
   20.4732   20.9035   25.1396 N   0  3  0  0  0  0  0  0  0  0  0  0
   20.7364   20.5494   26.0724 H   0  0  0  0  0  0  0  0  0  0  0  0
   19.4492   21.0259   25.1710 H   0  0  0  0  0  0  0  0  0  0  0  0
   20.8473   19.8943   24.0729 C   0  0  0  0  0  0  0  0  0  0  0  0
   21.9346   19.7844   24.0808 H   0  0  0  0  0  0  0  0  0  0  0  0
   20.5493   20.3059   23.1056 H   0  0  0  0  0  0  0  0  0  0  0  0
   20.1859   18.5180   24.2774 C   0  0  0  0  0  0  0  0  0  0  0  0
   20.4628   18.1295   25.2664 H   0  0  0  0  0  0  0  0  0  0  0  0
   19.0942   18.6294   24.2846 H   0  0  0  0  0  0  0  0  0  0  0  0
   20.6059   17.4878   23.1997 C   0  0  0  0  0  0  0  0  0  0  0  0
   20.1177   16.5272   23.4117 H   0  0  0  0  0  0  0  0  0  0  0  0
   21.6842   17.2978   23.2917 H   0  0  0  0  0  0  0  0  0  0  0  0
   20.3015   17.9134   21.7378 C   0  0  0  0  0  0  0  0  0  0  0  0
   20.9217   18.7805   21.4734 H   0  0  0  0  0  0  0  0  0  0  0  0
   20.6214   17.1065   21.0641 H   0  0  0  0  0  0  0  0  0  0  0  0
   18.8173   18.2504   21.4444 C   0  0  0  0  0  0  0  0  0  0  0  0
   18.7275   18.5473   20.3901 H   0  0  0  0  0  0  0  0  0  0  0  0
   18.5032   19.1248   22.0300 H   0  0  0  0  0  0  0  0  0  0  0  0
   17.8560   17.0701   21.7121 C   0  0  0  0  0  0  0  0  0  0  0  0
   16.8336   17.3304   21.4094 H   0  0  0  0  0  0  0  0  0  0  0  0
   17.8284   16.8068   22.7767 H   0  0  0  0  0  0  0  0  0  0  0  0
   18.1574   16.1796   21.1454 H   0  0  0  0  0  0  0  0  0  0  0  0
   21.1614   22.2322   24.8590 C   0  0  0  0  0  0  0  0  0  0  0  0
   20.8841   22.9499   25.6344 H   0  0  0  0  0  0  0  0  0  0  0  0
   22.2435   22.0841   24.8635 H   0  0  0  0  0  0  0  0  0  0  0  0
   20.8425   22.6027   23.8823 H   0  0  0  0  0  0  0  0  0  0  0  0
  1  2  1  0  0  0  0
  1  3  1  0  0  0  0
  1  4  1  0  0  0  0
  4  5  1  0  0  0  0
  4  6  1  0  0  0  0
  4  7  1  0  0  0  0
  7  8  1  0  0  0  0
  7  9  1  0  0  0  0
  7 10  1  0  0  0  0
 10 11  1  0  0  0  0
 10 12  1  0  0  0  0
 10 13  1  0  0  0  0
 13 14  1  0  0  0  0
 13 15  1  0  0  0  0
 13 16  1  0  0  0  0
 16 17  1  0  0  0  0
 16 18  1  0  0  0  0
 16 19  1  0  0  0  0
 19 20  1  0  0  0  0
 19 21  1  0  0  0  0
 19 22  1  0  0  0  0
  1 23  1  0  0  0  0
 23 24  1  0  0  0  0
 23 25  1  0  0  0  0
 23 26  1  0  0  0  0
M  END
> <VConfSearch Rank>
817

> <Conf_Id>
82

> <Delta U+W>
1.026

> <U+W>
22.868

> <U>
72.455

> <W>
-49.586

> <W(PB)>
-51.821

> <W(SA)>
2.234

> <Valence>
2.908

> <Coulomb>
69.435

> <VdW>
0.112

> <VdW6>
-7.765

> <VdW12>
7.877

> <Bond>
0.233

> <Angle>
1.170

> <Pdih>
1.506

> <Idih>
0.000

> <Tether>
0.000

$$$$
VeraChem MOL file


 26 25  0  0  0  0  0  0  0  0999 V2000     
   20.6548   20.5435   21.1755 N   0  3  0  0  0  0  0  0  0  0  0  0
   19.8554   20.0602   20.7374 H   0  0  0  0  0  0  0  0  0  0  0  0
   21.4822   20.2554   20.6303 H   0  0  0  0  0  0  0  0  0  0  0  0
   20.8026   20.1078   22.6193 C   0  0  0  0  0  0  0  0  0  0  0  0
   19.9074   20.4284   23.1574 H   0  0  0  0  0  0  0  0  0  0  0  0
   21.6645   20.6306   23.0414 H   0  0  0  0  0  0  0  0  0  0  0  0
   20.9887   18.5871   22.7809 C   0  0  0  0  0  0  0  0  0  0  0  0
   20.1307   18.0607   22.3438 H   0  0  0  0  0  0  0  0  0  0  0  0
   21.8699   18.2698   22.2077 H   0  0  0  0  0  0  0  0  0  0  0  0
   21.1739   18.1620   24.2589 C   0  0  0  0  0  0  0  0  0  0  0  0
   22.1061   18.6012   24.6402 H   0  0  0  0  0  0  0  0  0  0  0  0
   21.3196   17.0745   24.3041 H   0  0  0  0  0  0  0  0  0  0  0  0
   20.0118   18.5699   25.2046 C   0  0  0  0  0  0  0  0  0  0  0  0
   20.2382   18.2044   26.2157 H   0  0  0  0  0  0  0  0  0  0  0  0
   19.9765   19.6644   25.2885 H   0  0  0  0  0  0  0  0  0  0  0  0
   18.6108   18.0535   24.7886 C   0  0  0  0  0  0  0  0  0  0  0  0
   18.3150   18.4910   23.8257 H   0  0  0  0  0  0  0  0  0  0  0  0
   17.8738   18.4127   25.5205 H   0  0  0  0  0  0  0  0  0  0  0  0
   18.5236   16.5124   24.7106 C   0  0  0  0  0  0  0  0  0  0  0  0
   19.1643   16.1126   23.9149 H   0  0  0  0  0  0  0  0  0  0  0  0
   17.4946   16.1956   24.4969 H   0  0  0  0  0  0  0  0  0  0  0  0
   18.8264   16.0516   25.6598 H   0  0  0  0  0  0  0  0  0  0  0  0
   20.4691   22.0529   21.1067 C   0  0  0  0  0  0  0  0  0  0  0  0
   21.3413   22.5424   21.5457 H   0  0  0  0  0  0  0  0  0  0  0  0
   20.3643   22.3537   20.0619 H   0  0  0  0  0  0  0  0  0  0  0  0
   19.5705   22.3299   21.6622 H   0  0  0  0  0  0  0  0  0  0  0  0
  1  2  1  0  0  0  0
  1  3  1  0  0  0  0
  1  4  1  0  0  0  0
  4  5  1  0  0  0  0
  4  6  1  0  0  0  0
  4  7  1  0  0  0  0
  7  8  1  0  0  0  0
  7  9  1  0  0  0  0
  7 10  1  0  0  0  0
 10 11  1  0  0  0  0
 10 12  1  0  0  0  0
 10 13  1  0  0  0  0
 13 14  1  0  0  0  0
 13 15  1  0  0  0  0
 13 16  1  0  0  0  0
 16 17  1  0  0  0  0
 16 18  1  0  0  0  0
 16 19  1  0  0  0  0
 19 20  1  0  0  0  0
 19 21  1  0  0  0  0
 19 22  1  0  0  0  0
  1 23  1  0  0  0  0
 23 24  1  0  0  0  0
 23 25  1  0  0  0  0
 23 26  1  0  0  0  0
M  END
> <VConfSearch Rank>
818

> <Conf_Id>
71

> <Delta U+W>
1.096

> <U+W>
22.938

> <U>
72.455

> <W>
-49.517

> <W(PB)>
-51.795

> <W(SA)>
2.278

> <Valence>
2.908

> <Coulomb>
69.435

> <VdW>
0.112

> <VdW6>
-7.766

> <VdW12>
7.877

> <Bond>
0.233

> <Angle>
1.170

> <Pdih>
1.506

> <Idih>
0.000

> <Tether>
0.000

$$$$
VeraChem MOL file


 26 25  0  0  0  0  0  0  0  0999 V2000     
   20.7277   20.9434   24.7470 N   0  3  0  0  0  0  0  0  0  0  0  0
   19.8946   20.9902   24.1416 H   0  0  0  0  0  0  0  0  0  0  0  0
   21.1932   21.8583   24.6376 H   0  0  0  0  0  0  0  0  0  0  0  0
   21.6557   19.8381   24.2685 C   0  0  0  0  0  0  0  0  0  0  0  0
   22.5135   19.8090   24.9450 H   0  0  0  0  0  0  0  0  0  0  0  0
   22.0206   20.1237   23.2790 H   0  0  0  0  0  0  0  0  0  0  0  0
   21.0154   18.4337   24.1851 C   0  0  0  0  0  0  0  0  0  0  0  0
   21.7719   17.7248   23.8235 H   0  0  0  0  0  0  0  0  0  0  0  0
   20.7456   18.0970   25.1944 H   0  0  0  0  0  0  0  0  0  0  0  0
   19.7667   18.3583   23.2706 C   0  0  0  0  0  0  0  0  0  0  0  0
   18.9734   19.0049   23.6689 H   0  0  0  0  0  0  0  0  0  0  0  0
   19.3754   17.3337   23.3135 H   0  0  0  0  0  0  0  0  0  0  0  0
   20.0649   18.7379   21.7976 C   0  0  0  0  0  0  0  0  0  0  0  0
   20.4846   19.7515   21.7556 H   0  0  0  0  0  0  0  0  0  0  0  0
   20.8354   18.0679   21.3918 H   0  0  0  0  0  0  0  0  0  0  0  0
   18.8143   18.6978   20.8859 C   0  0  0  0  0  0  0  0  0  0  0  0
   19.0886   19.0873   19.8955 H   0  0  0  0  0  0  0  0  0  0  0  0
   18.0446   19.3762   21.2797 H   0  0  0  0  0  0  0  0  0  0  0  0
   18.2205   17.2809   20.7146 C   0  0  0  0  0  0  0  0  0  0  0  0
   17.8145   16.8959   21.6581 H   0  0  0  0  0  0  0  0  0  0  0  0
   18.9797   16.5753   20.3528 H   0  0  0  0  0  0  0  0  0  0  0  0
   17.4005   17.2940   19.9850 H   0  0  0  0  0  0  0  0  0  0  0  0
   20.3273   20.7351   26.2029 C   0  0  0  0  0  0  0  0  0  0  0  0
   19.6875   21.5618   26.5194 H   0  0  0  0  0  0  0  0  0  0  0  0
   19.7834   19.7929   26.2963 H   0  0  0  0  0  0  0  0  0  0  0  0
   21.2268   20.7071   26.8216 H   0  0  0  0  0  0  0  0  0  0  0  0
  1  2  1  0  0  0  0
  1  3  1  0  0  0  0
  1  4  1  0  0  0  0
  4  5  1  0  0  0  0
  4  6  1  0  0  0  0
  4  7  1  0  0  0  0
  7  8  1  0  0  0  0
  7  9  1  0  0  0  0
  7 10  1  0  0  0  0
 10 11  1  0  0  0  0
 10 12  1  0  0  0  0
 10 13  1  0  0  0  0
 13 14  1  0  0  0  0
 13 15  1  0  0  0  0
 13 16  1  0  0  0  0
 16 17  1  0  0  0  0
 16 18  1  0  0  0  0
 16 19  1  0  0  0  0
 19 20  1  0  0  0  0
 19 21  1  0  0  0  0
 19 22  1  0  0  0  0
  1 23  1  0  0  0  0
 23 24  1  0  0  0  0
 23 25  1  0  0  0  0
 23 26  1  0  0  0  0
M  END
> <VConfSearch Rank>
819

> <Conf_Id>
84

> <Delta U+W>
1.456

> <U+W>
23.298

> <U>
73.042

> <W>
-49.744

> <W(PB)>
-51.966

> <W(SA)>
2.222

> <Valence>
2.938

> <Coulomb>
69.625

> <VdW>
0.478

> <VdW6>
-8.182

> <VdW12>
8.660

> <Bond>
0.253

> <Angle>
1.038

> <Pdih>
1.647

> <Idih>
0.000

> <Tether>
0.000

$$$$
VeraChem MOL file


 26 25  0  0  0  0  0  0  0  0999 V2000     
   22.0438   20.2239   23.5623 N   0  3  0  0  0  0  0  0  0  0  0  0
   21.1352   20.5989   23.8734 H   0  0  0  0  0  0  0  0  0  0  0  0
   22.4194   20.9207   22.9005 H   0  0  0  0  0  0  0  0  0  0  0  0
   21.8428   18.8946   22.8615 C   0  0  0  0  0  0  0  0  0  0  0  0
   21.4495   18.1845   23.5928 H   0  0  0  0  0  0  0  0  0  0  0  0
   22.8243   18.5392   22.5377 H   0  0  0  0  0  0  0  0  0  0  0  0
   20.8974   18.9673   21.6445 C   0  0  0  0  0  0  0  0  0  0  0  0
   21.3287   19.6429   20.8940 H   0  0  0  0  0  0  0  0  0  0  0  0
   20.8537   17.9761   21.1740 H   0  0  0  0  0  0  0  0  0  0  0  0
   19.4599   19.4331   21.9881 C   0  0  0  0  0  0  0  0  0  0  0  0
   18.8721   19.4636   21.0602 H   0  0  0  0  0  0  0  0  0  0  0  0
   19.4810   20.4632   22.3682 H   0  0  0  0  0  0  0  0  0  0  0  0
   18.7483   18.5128   23.0091 C   0  0  0  0  0  0  0  0  0  0  0  0
   18.7508   17.4794   22.6356 H   0  0  0  0  0  0  0  0  0  0  0  0
   19.2983   18.5085   23.9596 H   0  0  0  0  0  0  0  0  0  0  0  0
   17.2930   18.9614   23.2695 C   0  0  0  0  0  0  0  0  0  0  0  0
   16.7292   18.9596   22.3261 H   0  0  0  0  0  0  0  0  0  0  0  0
   17.2841   19.9955   23.6416 H   0  0  0  0  0  0  0  0  0  0  0  0
   16.5854   18.0444   24.2899 C   0  0  0  0  0  0  0  0  0  0  0  0
   16.5485   17.0078   23.9301 H   0  0  0  0  0  0  0  0  0  0  0  0
   15.5538   18.3782   24.4610 H   0  0  0  0  0  0  0  0  0  0  0  0
   17.1065   18.0524   25.2561 H   0  0  0  0  0  0  0  0  0  0  0  0
   22.9837   20.0490   24.7469 C   0  0  0  0  0  0  0  0  0  0  0  0
   23.9475   19.6802   24.3890 H   0  0  0  0  0  0  0  0  0  0  0  0
   23.1187   21.0130   25.2425 H   0  0  0  0  0  0  0  0  0  0  0  0
   22.5497   19.3318   25.4469 H   0  0  0  0  0  0  0  0  0  0  0  0
  1  2  1  0  0  0  0
  1  3  1  0  0  0  0
  1  4  1  0  0  0  0
  4  5  1  0  0  0  0
  4  6  1  0  0  0  0
  4  7  1  0  0  0  0
  7  8  1  0  0  0  0
  7  9  1  0  0  0  0
  7 10  1  0  0  0  0
 10 11  1  0  0  0  0
 10 12  1  0  0  0  0
 10 13  1  0  0  0  0
 13 14  1  0  0  0  0
 13 15  1  0  0  0  0
 13 16  1  0  0  0  0
 16 17  1  0  0  0  0
 16 18  1  0  0  0  0
 16 19  1  0  0  0  0
 19 20  1  0  0  0  0
 19 21  1  0  0  0  0
 19 22  1  0  0  0  0
  1 23  1  0  0  0  0
 23 24  1  0  0  0  0
 23 25  1  0  0  0  0
 23 26  1  0  0  0  0
M  END
> <VConfSearch Rank>
820

> <Conf_Id>
73

> <Delta U+W>
0.884

> <U+W>
22.726

> <U>
71.905

> <W>
-49.179

> <W(PB)>
-51.494

> <W(SA)>
2.315

> <Valence>
2.125

> <Coulomb>
69.686

> <VdW>
0.093

> <VdW6>
-6.766

> <VdW12>
6.859

> <Bond>
0.169

> <Angle>
0.621

> <Pdih>
1.336

> <Idih>
0.000

> <Tether>
0.000

$$$$
VeraChem MOL file


 26 25  0  0  0  0  0  0  0  0999 V2000     
   18.1847   16.7815   24.5885 N   0  3  0  0  0  0  0  0  0  0  0  0
   18.7539   16.6555   25.4400 H   0  0  0  0  0  0  0  0  0  0  0  0
   18.4811   16.0299   23.9466 H   0  0  0  0  0  0  0  0  0  0  0  0
   18.4617   18.1371   23.9701 C   0  0  0  0  0  0  0  0  0  0  0  0
   18.1425   18.9021   24.6823 H   0  0  0  0  0  0  0  0  0  0  0  0
   17.8479   18.2268   23.0702 H   0  0  0  0  0  0  0  0  0  0  0  0
   19.9431   18.3506   23.6099 C   0  0  0  0  0  0  0  0  0  0  0  0
   20.5577   18.2432   24.5137 H   0  0  0  0  0  0  0  0  0  0  0  0
   20.2641   17.5702   22.9070 H   0  0  0  0  0  0  0  0  0  0  0  0
   20.1775   19.7432   22.9837 C   0  0  0  0  0  0  0  0  0  0  0  0
   19.8502   20.5210   23.6877 H   0  0  0  0  0  0  0  0  0  0  0  0
   19.5567   19.8488   22.0830 H   0  0  0  0  0  0  0  0  0  0  0  0
   21.6622   19.9689   22.6176 C   0  0  0  0  0  0  0  0  0  0  0  0
   22.2831   19.8635   23.5181 H   0  0  0  0  0  0  0  0  0  0  0  0
   21.9897   19.1914   21.9135 H   0  0  0  0  0  0  0  0  0  0  0  0
   21.8963   21.3618   21.9913 C   0  0  0  0  0  0  0  0  0  0  0  0
   21.5726   22.1435   22.6928 H   0  0  0  0  0  0  0  0  0  0  0  0
   21.2792   21.4714   21.0884 H   0  0  0  0  0  0  0  0  0  0  0  0
   23.3799   21.5837   21.6271 C   0  0  0  0  0  0  0  0  0  0  0  0
   23.5260   22.5774   21.1841 H   0  0  0  0  0  0  0  0  0  0  0  0
   23.7239   20.8370   20.8996 H   0  0  0  0  0  0  0  0  0  0  0  0
   24.0196   21.5143   22.5166 H   0  0  0  0  0  0  0  0  0  0  0  0
   16.7027   16.6530   24.9130 C   0  0  0  0  0  0  0  0  0  0  0  0
   16.1233   16.7564   23.9930 H   0  0  0  0  0  0  0  0  0  0  0  0
   16.5171   15.6727   25.3577 H   0  0  0  0  0  0  0  0  0  0  0  0
   16.4202   17.4375   25.6186 H   0  0  0  0  0  0  0  0  0  0  0  0
  1  2  1  0  0  0  0
  1  3  1  0  0  0  0
  1  4  1  0  0  0  0
  4  5  1  0  0  0  0
  4  6  1  0  0  0  0
  4  7  1  0  0  0  0
  7  8  1  0  0  0  0
  7  9  1  0  0  0  0
  7 10  1  0  0  0  0
 10 11  1  0  0  0  0
 10 12  1  0  0  0  0
 10 13  1  0  0  0  0
 13 14  1  0  0  0  0
 13 15  1  0  0  0  0
 13 16  1  0  0  0  0
 16 17  1  0  0  0  0
 16 18  1  0  0  0  0
 16 19  1  0  0  0  0
 19 20  1  0  0  0  0
 19 21  1  0  0  0  0
 19 22  1  0  0  0  0
  1 23  1  0  0  0  0
 23 24  1  0  0  0  0
 23 25  1  0  0  0  0
 23 26  1  0  0  0  0
M  END
> <VConfSearch Rank>
821

> <Conf_Id>
11

> <Delta U+W>
0.000

> <U+W>
21.842

> <U>
70.357

> <W>
-48.515

> <W(PB)>
-50.856

> <W(SA)>
2.341

> <Valence>
1.714

> <Coulomb>
68.480

> <VdW>
0.163

> <VdW6>
-5.268

> <VdW12>
5.431

> <Bond>
0.126

> <Angle>
0.350

> <Pdih>
1.238

> <Idih>
0.000

> <Tether>
0.000

$$$$
VeraChem MOL file


 26 25  0  0  0  0  0  0  0  0999 V2000     
   20.3600   15.9568   24.5863 N   0  3  0  0  0  0  0  0  0  0  0  0
   19.8848   15.0410   24.5468 H   0  0  0  0  0  0  0  0  0  0  0  0
   20.2435   16.2750   25.5608 H   0  0  0  0  0  0  0  0  0  0  0  0
   19.6790   16.9242   23.6326 C   0  0  0  0  0  0  0  0  0  0  0  0
   18.6046   16.8681   23.8258 H   0  0  0  0  0  0  0  0  0  0  0  0
   19.8587   16.5743   22.6129 H   0  0  0  0  0  0  0  0  0  0  0  0
   20.1370   18.3902   23.7725 C   0  0  0  0  0  0  0  0  0  0  0  0
   19.9989   18.7172   24.8116 H   0  0  0  0  0  0  0  0  0  0  0  0
   21.2092   18.4670   23.5503 H   0  0  0  0  0  0  0  0  0  0  0  0
   19.3470   19.3202   22.8252 C   0  0  0  0  0  0  0  0  0  0  0  0
   18.2733   19.2418   23.0464 H   0  0  0  0  0  0  0  0  0  0  0  0
   19.4825   18.9858   21.7871 H   0  0  0  0  0  0  0  0  0  0  0  0
   19.7955   20.7937   22.9564 C   0  0  0  0  0  0  0  0  0  0  0  0
   19.6602   21.1281   23.9944 H   0  0  0  0  0  0  0  0  0  0  0  0
   20.8690   20.8723   22.7350 H   0  0  0  0  0  0  0  0  0  0  0  0
   19.0052   21.7236   22.0089 C   0  0  0  0  0  0  0  0  0  0  0  0
   17.9306   21.6504   22.2281 H   0  0  0  0  0  0  0  0  0  0  0  0
   19.1392   21.3945   20.9688 H   0  0  0  0  0  0  0  0  0  0  0  0
   19.4558   23.1939   22.1426 C   0  0  0  0  0  0  0  0  0  0  0  0
   18.8836   23.8382   21.4625 H   0  0  0  0  0  0  0  0  0  0  0  0
   20.5198   23.3049   21.8960 H   0  0  0  0  0  0  0  0  0  0  0  0
   19.3017   23.5628   23.1651 H   0  0  0  0  0  0  0  0  0  0  0  0
   21.8359   15.7890   24.2431 C   0  0  0  0  0  0  0  0  0  0  0  0
   22.3439   16.7495   24.3506 H   0  0  0  0  0  0  0  0  0  0  0  0
   22.2805   15.0606   24.9249 H   0  0  0  0  0  0  0  0  0  0  0  0
   21.9269   15.4343   23.2142 H   0  0  0  0  0  0  0  0  0  0  0  0
  1  2  1  0  0  0  0
  1  3  1  0  0  0  0
  1  4  1  0  0  0  0
  4  5  1  0  0  0  0
  4  6  1  0  0  0  0
  4  7  1  0  0  0  0
  7  8  1  0  0  0  0
  7  9  1  0  0  0  0
  7 10  1  0  0  0  0
 10 11  1  0  0  0  0
 10 12  1  0  0  0  0
 10 13  1  0  0  0  0
 13 14  1  0  0  0  0
 13 15  1  0  0  0  0
 13 16  1  0  0  0  0
 16 17  1  0  0  0  0
 16 18  1  0  0  0  0
 16 19  1  0  0  0  0
 19 20  1  0  0  0  0
 19 21  1  0  0  0  0
 19 22  1  0  0  0  0
  1 23  1  0  0  0  0
 23 24  1  0  0  0  0
 23 25  1  0  0  0  0
 23 26  1  0  0  0  0
M  END
> <VConfSearch Rank>
822

> <Conf_Id>
102

> <Delta U+W>
0.121

> <U+W>
21.963

> <U>
70.745

> <W>
-48.782

> <W(PB)>
-51.111

> <W(SA)>
2.329

> <Valence>
1.993

> <Coulomb>
68.323

> <VdW>
0.429

> <VdW6>
-5.973

> <VdW12>
6.402

> <Bond>
0.161

> <Angle>
0.472

> <Pdih>
1.360

> <Idih>
0.000

> <Tether>
0.000

$$$$
VeraChem MOL file


 26 25  0  0  0  0  0  0  0  0999 V2000     
   19.0657   22.0962   24.3299 N   0  3  0  0  0  0  0  0  0  0  0  0
   18.6923   21.7421   25.2241 H   0  0  0  0  0  0  0  0  0  0  0  0
   18.4017   22.8302   24.0362 H   0  0  0  0  0  0  0  0  0  0  0  0
   19.0870   20.9857   23.2928 C   0  0  0  0  0  0  0  0  0  0  0  0
   19.5240   21.3896   22.3761 H   0  0  0  0  0  0  0  0  0  0  0  0
   18.0484   20.7172   23.0835 H   0  0  0  0  0  0  0  0  0  0  0  0
   19.8539   19.7197   23.7260 C   0  0  0  0  0  0  0  0  0  0  0  0
   20.9072   19.9682   23.9097 H   0  0  0  0  0  0  0  0  0  0  0  0
   19.4401   19.3497   24.6734 H   0  0  0  0  0  0  0  0  0  0  0  0
   19.7658   18.6124   22.6524 C   0  0  0  0  0  0  0  0  0  0  0  0
   20.1747   18.9888   21.7043 H   0  0  0  0  0  0  0  0  0  0  0  0
   18.7111   18.3649   22.4672 H   0  0  0  0  0  0  0  0  0  0  0  0
   20.5296   17.3367   23.0748 C   0  0  0  0  0  0  0  0  0  0  0  0
   21.5843   17.5840   23.2597 H   0  0  0  0  0  0  0  0  0  0  0  0
   20.1210   16.9605   24.0230 H   0  0  0  0  0  0  0  0  0  0  0  0
   20.4412   16.2295   22.0009 C   0  0  0  0  0  0  0  0  0  0  0  0
   20.8510   16.6003   21.0508 H   0  0  0  0  0  0  0  0  0  0  0  0
   19.3880   15.9767   21.8142 H   0  0  0  0  0  0  0  0  0  0  0  0
   21.2053   14.9574   22.4260 C   0  0  0  0  0  0  0  0  0  0  0  0
   22.2700   15.1714   22.5869 H   0  0  0  0  0  0  0  0  0  0  0  0
   21.1309   14.1833   21.6513 H   0  0  0  0  0  0  0  0  0  0  0  0
   20.7956   14.5430   23.3564 H   0  0  0  0  0  0  0  0  0  0  0  0
   20.4524   22.6999   24.5221 C   0  0  0  0  0  0  0  0  0  0  0  0
   20.8131   23.0821   23.5647 H   0  0  0  0  0  0  0  0  0  0  0  0
   20.3894   23.5164   25.2448 H   0  0  0  0  0  0  0  0  0  0  0  0
   21.1330   21.9318   24.8949 H   0  0  0  0  0  0  0  0  0  0  0  0
  1  2  1  0  0  0  0
  1  3  1  0  0  0  0
  1  4  1  0  0  0  0
  4  5  1  0  0  0  0
  4  6  1  0  0  0  0
  4  7  1  0  0  0  0
  7  8  1  0  0  0  0
  7  9  1  0  0  0  0
  7 10  1  0  0  0  0
 10 11  1  0  0  0  0
 10 12  1  0  0  0  0
 10 13  1  0  0  0  0
 13 14  1  0  0  0  0
 13 15  1  0  0  0  0
 13 16  1  0  0  0  0
 16 17  1  0  0  0  0
 16 18  1  0  0  0  0
 16 19  1  0  0  0  0
 19 20  1  0  0  0  0
 19 21  1  0  0  0  0
 19 22  1  0  0  0  0
  1 23  1  0  0  0  0
 23 24  1  0  0  0  0
 23 25  1  0  0  0  0
 23 26  1  0  0  0  0
M  END
> <VConfSearch Rank>
823

> <Conf_Id>
37

> <Delta U+W>
0.125

> <U+W>
21.967

> <U>
70.745

> <W>
-48.778

> <W(PB)>
-51.115

> <W(SA)>
2.337

> <Valence>
1.993

> <Coulomb>
68.323

> <VdW>
0.429

> <VdW6>
-5.973

> <VdW12>
6.403

> <Bond>
0.161

> <Angle>
0.472

> <Pdih>
1.360

> <Idih>
0.000

> <Tether>
0.000

$$$$
VeraChem MOL file


 26 25  0  0  0  0  0  0  0  0999 V2000     
   19.4498   16.1533   22.7883 N   0  3  0  0  0  0  0  0  0  0  0  0
   19.7565   15.8765   21.8427 H   0  0  0  0  0  0  0  0  0  0  0  0
   18.4233   16.2406   22.7293 H   0  0  0  0  0  0  0  0  0  0  0  0
   20.0667   17.4839   23.1696 C   0  0  0  0  0  0  0  0  0  0  0  0
   21.1507   17.3515   23.2105 H   0  0  0  0  0  0  0  0  0  0  0  0
   19.7124   17.7396   24.1709 H   0  0  0  0  0  0  0  0  0  0  0  0
   19.7202   18.6192   22.1869 C   0  0  0  0  0  0  0  0  0  0  0  0
   20.0395   18.3281   21.1774 H   0  0  0  0  0  0  0  0  0  0  0  0
   18.6310   18.7531   22.1456 H   0  0  0  0  0  0  0  0  0  0  0  0
   20.3953   19.9609   22.5582 C   0  0  0  0  0  0  0  0  0  0  0  0
   20.1920   20.6812   21.7551 H   0  0  0  0  0  0  0  0  0  0  0  0
   21.4855   19.8267   22.5876 H   0  0  0  0  0  0  0  0  0  0  0  0
   19.9019   20.5366   23.9103 C   0  0  0  0  0  0  0  0  0  0  0  0
   18.8146   20.6898   23.8732 H   0  0  0  0  0  0  0  0  0  0  0  0
   20.0836   19.8056   24.7092 H   0  0  0  0  0  0  0  0  0  0  0  0
   20.5963   21.8627   24.3054 C   0  0  0  0  0  0  0  0  0  0  0  0
   21.6839   21.7126   24.3553 H   0  0  0  0  0  0  0  0  0  0  0  0
   20.2779   22.1374   25.3208 H   0  0  0  0  0  0  0  0  0  0  0  0
   20.2760   23.0356   23.3507 C   0  0  0  0  0  0  0  0  0  0  0  0
   20.6871   22.8647   22.3482 H   0  0  0  0  0  0  0  0  0  0  0  0
   20.7118   23.9690   23.7299 H   0  0  0  0  0  0  0  0  0  0  0  0
   19.1925   23.1851   23.2580 H   0  0  0  0  0  0  0  0  0  0  0  0
   19.8379   15.0914   23.8079 C   0  0  0  0  0  0  0  0  0  0  0  0
   19.4742   15.3898   24.7936 H   0  0  0  0  0  0  0  0  0  0  0  0
   19.3874   14.1383   23.5215 H   0  0  0  0  0  0  0  0  0  0  0  0
   20.9255   14.9938   23.8285 H   0  0  0  0  0  0  0  0  0  0  0  0
  1  2  1  0  0  0  0
  1  3  1  0  0  0  0
  1  4  1  0  0  0  0
  4  5  1  0  0  0  0
  4  6  1  0  0  0  0
  4  7  1  0  0  0  0
  7  8  1  0  0  0  0
  7  9  1  0  0  0  0
  7 10  1  0  0  0  0
 10 11  1  0  0  0  0
 10 12  1  0  0  0  0
 10 13  1  0  0  0  0
 13 14  1  0  0  0  0
 13 15  1  0  0  0  0
 13 16  1  0  0  0  0
 16 17  1  0  0  0  0
 16 18  1  0  0  0  0
 16 19  1  0  0  0  0
 19 20  1  0  0  0  0
 19 21  1  0  0  0  0
 19 22  1  0  0  0  0
  1 23  1  0  0  0  0
 23 24  1  0  0  0  0
 23 25  1  0  0  0  0
 23 26  1  0  0  0  0
M  END
> <VConfSearch Rank>
824

> <Conf_Id>
137

> <Delta U+W>
1.038

> <U+W>
22.880

> <U>
71.810

> <W>
-48.930

> <W(PB)>
-51.257

> <W(SA)>
2.327

> <Valence>
2.568

> <Coulomb>
68.877

> <VdW>
0.364

> <VdW6>
-6.470

> <VdW12>
6.834

> <Bond>
0.191

> <Angle>
0.752

> <Pdih>
1.626

> <Idih>
0.000

> <Tether>
0.000

$$$$
VeraChem MOL file


 26 25  0  0  0  0  0  0  0  0999 V2000     
   17.9442   19.9312   21.4159 N   0  3  0  0  0  0  0  0  0  0  0  0
   18.5049   19.5012   20.6639 H   0  0  0  0  0  0  0  0  0  0  0  0
   18.2125   20.9276   21.4231 H   0  0  0  0  0  0  0  0  0  0  0  0
   18.2769   19.2904   22.7484 C   0  0  0  0  0  0  0  0  0  0  0  0
   17.9860   18.2382   22.6965 H   0  0  0  0  0  0  0  0  0  0  0  0
   17.6700   19.7780   23.5155 H   0  0  0  0  0  0  0  0  0  0  0  0
   19.7668   19.3979   23.1208 C   0  0  0  0  0  0  0  0  0  0  0  0
   20.3663   18.9220   22.3347 H   0  0  0  0  0  0  0  0  0  0  0  0
   20.0584   20.4560   23.1559 H   0  0  0  0  0  0  0  0  0  0  0  0
   20.0546   18.7326   24.4875 C   0  0  0  0  0  0  0  0  0  0  0  0
   19.8089   17.6627   24.4379 H   0  0  0  0  0  0  0  0  0  0  0  0
   19.3856   19.1672   25.2434 H   0  0  0  0  0  0  0  0  0  0  0  0
   21.5167   18.9078   24.9674 C   0  0  0  0  0  0  0  0  0  0  0  0
   21.7570   19.9779   25.0341 H   0  0  0  0  0  0  0  0  0  0  0  0
   21.5975   18.5104   25.9887 H   0  0  0  0  0  0  0  0  0  0  0  0
   22.5543   18.1952   24.0676 C   0  0  0  0  0  0  0  0  0  0  0  0
   22.5464   18.6314   23.0600 H   0  0  0  0  0  0  0  0  0  0  0  0
   22.2853   17.1352   23.9583 H   0  0  0  0  0  0  0  0  0  0  0  0
   23.9807   18.3032   24.6480 C   0  0  0  0  0  0  0  0  0  0  0  0
   24.2904   19.3523   24.7415 H   0  0  0  0  0  0  0  0  0  0  0  0
   24.7038   17.7954   23.9966 H   0  0  0  0  0  0  0  0  0  0  0  0
   24.0396   17.8396   25.6414 H   0  0  0  0  0  0  0  0  0  0  0  0
   16.4572   19.7808   21.1257 C   0  0  0  0  0  0  0  0  0  0  0  0
   15.8855   20.2716   21.9164 H   0  0  0  0  0  0  0  0  0  0  0  0
   16.2311   20.2463   20.1638 H   0  0  0  0  0  0  0  0  0  0  0  0
   16.2038   18.7190   21.0902 H   0  0  0  0  0  0  0  0  0  0  0  0
  1  2  1  0  0  0  0
  1  3  1  0  0  0  0
  1  4  1  0  0  0  0
  4  5  1  0  0  0  0
  4  6  1  0  0  0  0
  4  7  1  0  0  0  0
  7  8  1  0  0  0  0
  7  9  1  0  0  0  0
  7 10  1  0  0  0  0
 10 11  1  0  0  0  0
 10 12  1  0  0  0  0
 10 13  1  0  0  0  0
 13 14  1  0  0  0  0
 13 15  1  0  0  0  0
 13 16  1  0  0  0  0
 16 17  1  0  0  0  0
 16 18  1  0  0  0  0
 16 19  1  0  0  0  0
 19 20  1  0  0  0  0
 19 21  1  0  0  0  0
 19 22  1  0  0  0  0
  1 23  1  0  0  0  0
 23 24  1  0  0  0  0
 23 25  1  0  0  0  0
 23 26  1  0  0  0  0
M  END
> <VConfSearch Rank>
825

> <Conf_Id>
35

> <Delta U+W>
0.670

> <U+W>
22.512

> <U>
71.348

> <W>
-48.837

> <W(PB)>
-51.150

> <W(SA)>
2.313

> <Valence>
2.262

> <Coulomb>
68.807

> <VdW>
0.280

> <VdW6>
-5.915

> <VdW12>
6.195

> <Bond>
0.164

> <Angle>
0.622

> <Pdih>
1.475

> <Idih>
0.000

> <Tether>
0.000

$$$$
VeraChem MOL file


 26 25  0  0  0  0  0  0  0  0999 V2000     
   18.5581   18.4284   25.8009 N   0  3  0  0  0  0  0  0  0  0  0  0
   17.6368   18.7327   25.4494 H   0  0  0  0  0  0  0  0  0  0  0  0
   18.9914   19.2740   26.2034 H   0  0  0  0  0  0  0  0  0  0  0  0
   19.4042   17.8992   24.6603 C   0  0  0  0  0  0  0  0  0  0  0  0
   18.9080   17.0122   24.2585 H   0  0  0  0  0  0  0  0  0  0  0  0
   20.3704   17.5966   25.0719 H   0  0  0  0  0  0  0  0  0  0  0  0
   19.6200   18.9267   23.5344 C   0  0  0  0  0  0  0  0  0  0  0  0
   18.6462   19.2400   23.1351 H   0  0  0  0  0  0  0  0  0  0  0  0
   20.1012   19.8194   23.9534 H   0  0  0  0  0  0  0  0  0  0  0  0
   20.4857   18.3393   22.3948 C   0  0  0  0  0  0  0  0  0  0  0  0
   20.0284   17.4027   22.0463 H   0  0  0  0  0  0  0  0  0  0  0  0
   21.4779   18.0710   22.7837 H   0  0  0  0  0  0  0  0  0  0  0  0
   20.6431   19.2896   21.1820 C   0  0  0  0  0  0  0  0  0  0  0  0
   21.1680   18.7489   20.3823 H   0  0  0  0  0  0  0  0  0  0  0  0
   19.6518   19.5438   20.7819 H   0  0  0  0  0  0  0  0  0  0  0  0
   21.4227   20.5860   21.5071 C   0  0  0  0  0  0  0  0  0  0  0  0
   22.3936   20.3330   21.9554 H   0  0  0  0  0  0  0  0  0  0  0  0
   20.8751   21.1826   22.2487 H   0  0  0  0  0  0  0  0  0  0  0  0
   21.6509   21.4448   20.2447 C   0  0  0  0  0  0  0  0  0  0  0  0
   22.2330   20.8959   19.4930 H   0  0  0  0  0  0  0  0  0  0  0  0
   22.2021   22.3609   20.4935 H   0  0  0  0  0  0  0  0  0  0  0  0
   20.6962   21.7392   19.7897 H   0  0  0  0  0  0  0  0  0  0  0  0
   18.3945   17.3535   26.8666 C   0  0  0  0  0  0  0  0  0  0  0  0
   19.3790   17.0718   27.2466 H   0  0  0  0  0  0  0  0  0  0  0  0
   17.7834   17.7474   27.6818 H   0  0  0  0  0  0  0  0  0  0  0  0
   17.9046   16.4825   26.4260 H   0  0  0  0  0  0  0  0  0  0  0  0
  1  2  1  0  0  0  0
  1  3  1  0  0  0  0
  1  4  1  0  0  0  0
  4  5  1  0  0  0  0
  4  6  1  0  0  0  0
  4  7  1  0  0  0  0
  7  8  1  0  0  0  0
  7  9  1  0  0  0  0
  7 10  1  0  0  0  0
 10 11  1  0  0  0  0
 10 12  1  0  0  0  0
 10 13  1  0  0  0  0
 13 14  1  0  0  0  0
 13 15  1  0  0  0  0
 13 16  1  0  0  0  0
 16 17  1  0  0  0  0
 16 18  1  0  0  0  0
 16 19  1  0  0  0  0
 19 20  1  0  0  0  0
 19 21  1  0  0  0  0
 19 22  1  0  0  0  0
  1 23  1  0  0  0  0
 23 24  1  0  0  0  0
 23 25  1  0  0  0  0
 23 26  1  0  0  0  0
M  END
> <VConfSearch Rank>
826

> <Conf_Id>
36

> <Delta U+W>
0.662

> <U+W>
22.504

> <U>
71.348

> <W>
-48.844

> <W(PB)>
-51.157

> <W(SA)>
2.313

> <Valence>
2.262

> <Coulomb>
68.807

> <VdW>
0.280

> <VdW6>
-5.916

> <VdW12>
6.195

> <Bond>
0.164

> <Angle>
0.622

> <Pdih>
1.475

> <Idih>
0.000

> <Tether>
0.000

$$$$
VeraChem MOL file


 26 25  0  0  0  0  0  0  0  0999 V2000     
   18.2463   18.2895   25.4999 N   0  3  0  0  0  0  0  0  0  0  0  0
   17.8120   17.4969   25.0020 H   0  0  0  0  0  0  0  0  0  0  0  0
   17.4717   18.9371   25.7133 H   0  0  0  0  0  0  0  0  0  0  0  0
   19.2669   18.9701   24.6102 C   0  0  0  0  0  0  0  0  0  0  0  0
   20.0628   18.2500   24.4060 H   0  0  0  0  0  0  0  0  0  0  0  0
   19.6937   19.8069   25.1688 H   0  0  0  0  0  0  0  0  0  0  0  0
   18.6732   19.4817   23.2835 C   0  0  0  0  0  0  0  0  0  0  0  0
   18.2428   18.6410   22.7231 H   0  0  0  0  0  0  0  0  0  0  0  0
   17.8461   20.1700   23.5023 H   0  0  0  0  0  0  0  0  0  0  0  0
   19.7157   20.2128   22.4049 C   0  0  0  0  0  0  0  0  0  0  0  0
   20.1245   21.0698   22.9582 H   0  0  0  0  0  0  0  0  0  0  0  0
   19.2055   20.6270   21.5243 H   0  0  0  0  0  0  0  0  0  0  0  0
   20.8702   19.2933   21.9385 C   0  0  0  0  0  0  0  0  0  0  0  0
   21.4207   18.9108   22.8084 H   0  0  0  0  0  0  0  0  0  0  0  0
   20.4560   18.4205   21.4149 H   0  0  0  0  0  0  0  0  0  0  0  0
   21.8526   20.0343   21.0042 C   0  0  0  0  0  0  0  0  0  0  0  0
   22.2695   20.9091   21.5227 H   0  0  0  0  0  0  0  0  0  0  0  0
   21.3138   20.4145   20.1248 H   0  0  0  0  0  0  0  0  0  0  0  0
   23.0044   19.1169   20.5410 C   0  0  0  0  0  0  0  0  0  0  0  0
   23.5845   18.7482   21.3970 H   0  0  0  0  0  0  0  0  0  0  0  0
   23.6905   19.6604   19.8785 H   0  0  0  0  0  0  0  0  0  0  0  0
   22.6204   18.2490   19.9890 H   0  0  0  0  0  0  0  0  0  0  0  0
   18.9132   17.8135   26.7830 C   0  0  0  0  0  0  0  0  0  0  0  0
   19.3360   18.6728   27.3082 H   0  0  0  0  0  0  0  0  0  0  0  0
   18.1674   17.3256   27.4147 H   0  0  0  0  0  0  0  0  0  0  0  0
   19.7062   17.1048   26.5342 H   0  0  0  0  0  0  0  0  0  0  0  0
  1  2  1  0  0  0  0
  1  3  1  0  0  0  0
  1  4  1  0  0  0  0
  4  5  1  0  0  0  0
  4  6  1  0  0  0  0
  4  7  1  0  0  0  0
  7  8  1  0  0  0  0
  7  9  1  0  0  0  0
  7 10  1  0  0  0  0
 10 11  1  0  0  0  0
 10 12  1  0  0  0  0
 10 13  1  0  0  0  0
 13 14  1  0  0  0  0
 13 15  1  0  0  0  0
 13 16  1  0  0  0  0
 16 17  1  0  0  0  0
 16 18  1  0  0  0  0
 16 19  1  0  0  0  0
 19 20  1  0  0  0  0
 19 21  1  0  0  0  0
 19 22  1  0  0  0  0
  1 23  1  0  0  0  0
 23 24  1  0  0  0  0
 23 25  1  0  0  0  0
 23 26  1  0  0  0  0
M  END
> <VConfSearch Rank>
827

> <Conf_Id>
46

> <Delta U+W>
0.496

> <U+W>
22.338

> <U>
71.138

> <W>
-48.799

> <W(PB)>
-51.136

> <W(SA)>
2.337

> <Valence>
2.016

> <Coulomb>
68.932

> <VdW>
0.190

> <VdW6>
-5.902

> <VdW12>
6.092

> <Bond>
0.149

> <Angle>
0.477

> <Pdih>
1.390

> <Idih>
0.000

> <Tether>
0.000

$$$$
VeraChem MOL file


 26 25  0  0  0  0  0  0  0  0999 V2000     
   22.1109   18.6307   21.2051 N   0  3  0  0  0  0  0  0  0  0  0  0
   22.8329   19.3623   21.1133 H   0  0  0  0  0  0  0  0  0  0  0  0
   21.5036   18.7391   20.3779 H   0  0  0  0  0  0  0  0  0  0  0  0
   21.3096   18.8430   22.4737 C   0  0  0  0  0  0  0  0  0  0  0  0
   21.9891   18.7308   23.3223 H   0  0  0  0  0  0  0  0  0  0  0  0
   20.5569   18.0530   22.5277 H   0  0  0  0  0  0  0  0  0  0  0  0
   20.6244   20.2217   22.5374 C   0  0  0  0  0  0  0  0  0  0  0  0
   21.3864   21.0061   22.4379 H   0  0  0  0  0  0  0  0  0  0  0  0
   19.9430   20.3352   21.6838 H   0  0  0  0  0  0  0  0  0  0  0  0
   19.8466   20.4419   23.8564 C   0  0  0  0  0  0  0  0  0  0  0  0
   19.4636   21.4718   23.8716 H   0  0  0  0  0  0  0  0  0  0  0  0
   20.5364   20.3549   24.7074 H   0  0  0  0  0  0  0  0  0  0  0  0
   18.6661   19.4574   24.0381 C   0  0  0  0  0  0  0  0  0  0  0  0
   17.9960   19.5230   23.1697 H   0  0  0  0  0  0  0  0  0  0  0  0
   19.0398   18.4253   24.0743 H   0  0  0  0  0  0  0  0  0  0  0  0
   17.8666   19.7513   25.3271 C   0  0  0  0  0  0  0  0  0  0  0  0
   17.4799   20.7798   25.2981 H   0  0  0  0  0  0  0  0  0  0  0  0
   18.5323   19.6878   26.1993 H   0  0  0  0  0  0  0  0  0  0  0  0
   16.6906   18.7678   25.5081 C   0  0  0  0  0  0  0  0  0  0  0  0
   15.9886   18.8325   24.6666 H   0  0  0  0  0  0  0  0  0  0  0  0
   16.1351   18.9928   26.4278 H   0  0  0  0  0  0  0  0  0  0  0  0
   17.0485   17.7322   25.5759 H   0  0  0  0  0  0  0  0  0  0  0  0
   22.7498   17.2489   21.2212 C   0  0  0  0  0  0  0  0  0  0  0  0
   23.3239   17.1090   20.3025 H   0  0  0  0  0  0  0  0  0  0  0  0
   23.4125   17.1697   22.0858 H   0  0  0  0  0  0  0  0  0  0  0  0
   21.9657   16.4913   21.2851 H   0  0  0  0  0  0  0  0  0  0  0  0
  1  2  1  0  0  0  0
  1  3  1  0  0  0  0
  1  4  1  0  0  0  0
  4  5  1  0  0  0  0
  4  6  1  0  0  0  0
  4  7  1  0  0  0  0
  7  8  1  0  0  0  0
  7  9  1  0  0  0  0
  7 10  1  0  0  0  0
 10 11  1  0  0  0  0
 10 12  1  0  0  0  0
 10 13  1  0  0  0  0
 13 14  1  0  0  0  0
 13 15  1  0  0  0  0
 13 16  1  0  0  0  0
 16 17  1  0  0  0  0
 16 18  1  0  0  0  0
 16 19  1  0  0  0  0
 19 20  1  0  0  0  0
 19 21  1  0  0  0  0
 19 22  1  0  0  0  0
  1 23  1  0  0  0  0
 23 24  1  0  0  0  0
 23 25  1  0  0  0  0
 23 26  1  0  0  0  0
M  END
> <VConfSearch Rank>
828

> <Conf_Id>
45

> <Delta U+W>
0.471

> <U+W>
22.313

> <U>
71.138

> <W>
-48.825

> <W(PB)>
-51.169

> <W(SA)>
2.344

> <Valence>
2.016

> <Coulomb>
68.932

> <VdW>
0.190

> <VdW6>
-5.902

> <VdW12>
6.092

> <Bond>
0.149

> <Angle>
0.477

> <Pdih>
1.390

> <Idih>
0.000

> <Tether>
0.000

$$$$
VeraChem MOL file


 26 25  0  0  0  0  0  0  0  0999 V2000     
   21.8436   17.1856   23.3227 N   0  3  0  0  0  0  0  0  0  0  0  0
   21.4653   17.2550   22.3660 H   0  0  0  0  0  0  0  0  0  0  0  0
   21.1472   16.6431   23.8569 H   0  0  0  0  0  0  0  0  0  0  0  0
   21.9989   18.5697   23.9227 C   0  0  0  0  0  0  0  0  0  0  0  0
   22.7348   19.1151   23.3264 H   0  0  0  0  0  0  0  0  0  0  0  0
   22.3998   18.4486   24.9322 H   0  0  0  0  0  0  0  0  0  0  0  0
   20.6852   19.3733   23.9872 C   0  0  0  0  0  0  0  0  0  0  0  0
   19.9545   18.8184   24.5889 H   0  0  0  0  0  0  0  0  0  0  0  0
   20.8802   20.3148   24.5177 H   0  0  0  0  0  0  0  0  0  0  0  0
   20.1087   19.6848   22.5832 C   0  0  0  0  0  0  0  0  0  0  0  0
   19.8250   18.7530   22.0760 H   0  0  0  0  0  0  0  0  0  0  0  0
   20.8952   20.1447   21.9687 H   0  0  0  0  0  0  0  0  0  0  0  0
   18.8900   20.6398   22.6149 C   0  0  0  0  0  0  0  0  0  0  0  0
   19.1740   21.5840   23.0998 H   0  0  0  0  0  0  0  0  0  0  0  0
   18.6200   20.8944   21.5807 H   0  0  0  0  0  0  0  0  0  0  0  0
   17.6526   20.0405   23.3245 C   0  0  0  0  0  0  0  0  0  0  0  0
   17.8774   19.8485   24.3821 H   0  0  0  0  0  0  0  0  0  0  0  0
   17.3977   19.0719   22.8720 H   0  0  0  0  0  0  0  0  0  0  0  0
   16.4331   20.9828   23.2354 C   0  0  0  0  0  0  0  0  0  0  0  0
   16.6471   21.9508   23.7070 H   0  0  0  0  0  0  0  0  0  0  0  0
   15.5659   20.5440   23.7458 H   0  0  0  0  0  0  0  0  0  0  0  0
   16.1509   21.1666   22.1905 H   0  0  0  0  0  0  0  0  0  0  0  0
   23.1873   16.4702   23.3146 C   0  0  0  0  0  0  0  0  0  0  0  0
   23.5526   16.3808   24.3401 H   0  0  0  0  0  0  0  0  0  0  0  0
   23.0614   15.4760   22.8800 H   0  0  0  0  0  0  0  0  0  0  0  0
   23.8975   17.0466   22.7177 H   0  0  0  0  0  0  0  0  0  0  0  0
  1  2  1  0  0  0  0
  1  3  1  0  0  0  0
  1  4  1  0  0  0  0
  4  5  1  0  0  0  0
  4  6  1  0  0  0  0
  4  7  1  0  0  0  0
  7  8  1  0  0  0  0
  7  9  1  0  0  0  0
  7 10  1  0  0  0  0
 10 11  1  0  0  0  0
 10 12  1  0  0  0  0
 10 13  1  0  0  0  0
 13 14  1  0  0  0  0
 13 15  1  0  0  0  0
 13 16  1  0  0  0  0
 16 17  1  0  0  0  0
 16 18  1  0  0  0  0
 16 19  1  0  0  0  0
 19 20  1  0  0  0  0
 19 21  1  0  0  0  0
 19 22  1  0  0  0  0
  1 23  1  0  0  0  0
 23 24  1  0  0  0  0
 23 25  1  0  0  0  0
 23 26  1  0  0  0  0
M  END
> <VConfSearch Rank>
829

> <Conf_Id>
143

> <Delta U+W>
0.915

> <U+W>
22.757

> <U>
71.994

> <W>
-49.237

> <W(PB)>
-51.537

> <W(SA)>
2.300

> <Valence>
2.376

> <Coulomb>
69.315

> <VdW>
0.303

> <VdW6>
-6.508

> <VdW12>
6.810

> <Bond>
0.182

> <Angle>
0.660

> <Pdih>
1.534

> <Idih>
0.000

> <Tether>
0.000

$$$$
VeraChem MOL file


 26 25  0  0  0  0  0  0  0  0999 V2000     
   20.5335   20.6004   25.3484 N   0  3  0  0  0  0  0  0  0  0  0  0
   19.8581   19.9533   25.7821 H   0  0  0  0  0  0  0  0  0  0  0  0
   19.9682   21.3739   24.9653 H   0  0  0  0  0  0  0  0  0  0  0  0
   21.2842   19.9002   24.2319 C   0  0  0  0  0  0  0  0  0  0  0  0
   21.8617   19.0837   24.6727 H   0  0  0  0  0  0  0  0  0  0  0  0
   21.9853   20.6221   23.8054 H   0  0  0  0  0  0  0  0  0  0  0  0
   20.3768   19.3498   23.1139 C   0  0  0  0  0  0  0  0  0  0  0  0
   19.7756   20.1665   22.6929 H   0  0  0  0  0  0  0  0  0  0  0  0
   21.0242   18.9809   22.3090 H   0  0  0  0  0  0  0  0  0  0  0  0
   19.4563   18.2035   23.5998 C   0  0  0  0  0  0  0  0  0  0  0  0
   18.8833   18.5396   24.4739 H   0  0  0  0  0  0  0  0  0  0  0  0
   20.0739   17.3626   23.9447 H   0  0  0  0  0  0  0  0  0  0  0  0
   18.4479   17.6983   22.5353 C   0  0  0  0  0  0  0  0  0  0  0  0
   17.8285   16.9240   23.0091 H   0  0  0  0  0  0  0  0  0  0  0  0
   17.7531   18.5040   22.2607 H   0  0  0  0  0  0  0  0  0  0  0  0
   19.0916   17.0883   21.2632 C   0  0  0  0  0  0  0  0  0  0  0  0
   18.4678   16.2498   20.9231 H   0  0  0  0  0  0  0  0  0  0  0  0
   20.0735   16.6559   21.5010 H   0  0  0  0  0  0  0  0  0  0  0  0
   19.2148   18.0940   20.0945 C   0  0  0  0  0  0  0  0  0  0  0  0
   19.8436   18.9531   20.3527 H   0  0  0  0  0  0  0  0  0  0  0  0
   18.2282   18.4747   19.7999 H   0  0  0  0  0  0  0  0  0  0  0  0
   19.6595   17.6090   19.2159 H   0  0  0  0  0  0  0  0  0  0  0  0
   21.5168   21.1203   26.3877 C   0  0  0  0  0  0  0  0  0  0  0  0
   22.2009   21.8271   25.9128 H   0  0  0  0  0  0  0  0  0  0  0  0
   20.9637   21.6214   27.1852 H   0  0  0  0  0  0  0  0  0  0  0  0
   22.0801   20.2806   26.8007 H   0  0  0  0  0  0  0  0  0  0  0  0
  1  2  1  0  0  0  0
  1  3  1  0  0  0  0
  1  4  1  0  0  0  0
  4  5  1  0  0  0  0
  4  6  1  0  0  0  0
  4  7  1  0  0  0  0
  7  8  1  0  0  0  0
  7  9  1  0  0  0  0
  7 10  1  0  0  0  0
 10 11  1  0  0  0  0
 10 12  1  0  0  0  0
 10 13  1  0  0  0  0
 13 14  1  0  0  0  0
 13 15  1  0  0  0  0
 13 16  1  0  0  0  0
 16 17  1  0  0  0  0
 16 18  1  0  0  0  0
 16 19  1  0  0  0  0
 19 20  1  0  0  0  0
 19 21  1  0  0  0  0
 19 22  1  0  0  0  0
  1 23  1  0  0  0  0
 23 24  1  0  0  0  0
 23 25  1  0  0  0  0
 23 26  1  0  0  0  0
M  END
> <VConfSearch Rank>
830

> <Conf_Id>
76

> <Delta U+W>
3.468

> <U+W>
25.310

> <U>
74.594

> <W>
-49.283

> <W(PB)>
-51.537

> <W(SA)>
2.253

> <Valence>
4.886

> <Coulomb>
69.332

> <VdW>
0.376

> <VdW6>
-7.329

> <VdW12>
7.705

> <Bond>
0.232

> <Angle>
1.251

> <Pdih>
3.403

> <Idih>
0.000

> <Tether>
0.000

$$$$
VeraChem MOL file


 26 25  0  0  0  0  0  0  0  0999 V2000     
   19.3668   16.9217   21.7559 N   0  3  0  0  0  0  0  0  0  0  0  0
   19.2915   16.4121   22.6500 H   0  0  0  0  0  0  0  0  0  0  0  0
   20.2702   16.6320   21.3499 H   0  0  0  0  0  0  0  0  0  0  0  0
   19.3602   18.4168   22.0036 C   0  0  0  0  0  0  0  0  0  0  0  0
   18.3930   18.6803   22.4389 H   0  0  0  0  0  0  0  0  0  0  0  0
   19.4501   18.9173   21.0361 H   0  0  0  0  0  0  0  0  0  0  0  0
   20.4922   18.8849   22.9360 C   0  0  0  0  0  0  0  0  0  0  0  0
   20.4097   18.3596   23.8941 H   0  0  0  0  0  0  0  0  0  0  0  0
   21.4601   18.6023   22.5011 H   0  0  0  0  0  0  0  0  0  0  0  0
   20.4490   20.4173   23.1485 C   0  0  0  0  0  0  0  0  0  0  0  0
   19.4647   20.7239   23.5289 H   0  0  0  0  0  0  0  0  0  0  0  0
   20.5587   20.9007   22.1677 H   0  0  0  0  0  0  0  0  0  0  0  0
   21.5690   20.9447   24.0834 C   0  0  0  0  0  0  0  0  0  0  0  0
   22.4606   20.3069   24.0087 H   0  0  0  0  0  0  0  0  0  0  0  0
   21.8817   21.9329   23.7185 H   0  0  0  0  0  0  0  0  0  0  0  0
   21.1530   21.1073   25.5680 C   0  0  0  0  0  0  0  0  0  0  0  0
   20.3277   21.8292   25.6425 H   0  0  0  0  0  0  0  0  0  0  0  0
   21.9945   21.5509   26.1186 H   0  0  0  0  0  0  0  0  0  0  0  0
   20.7458   19.7903   26.2644 C   0  0  0  0  0  0  0  0  0  0  0  0
   21.5234   19.0242   26.1501 H   0  0  0  0  0  0  0  0  0  0  0  0
   19.8051   19.3988   25.8581 H   0  0  0  0  0  0  0  0  0  0  0  0
   20.5935   19.9562   27.3387 H   0  0  0  0  0  0  0  0  0  0  0  0
   18.2195   16.5452   20.8287 C   0  0  0  0  0  0  0  0  0  0  0  0
   17.2734   16.8311   21.2936 H   0  0  0  0  0  0  0  0  0  0  0  0
   18.3386   17.0704   19.8784 H   0  0  0  0  0  0  0  0  0  0  0  0
   18.2357   15.4664   20.6584 H   0  0  0  0  0  0  0  0  0  0  0  0
  1  2  1  0  0  0  0
  1  3  1  0  0  0  0
  1  4  1  0  0  0  0
  4  5  1  0  0  0  0
  4  6  1  0  0  0  0
  4  7  1  0  0  0  0
  7  8  1  0  0  0  0
  7  9  1  0  0  0  0
  7 10  1  0  0  0  0
 10 11  1  0  0  0  0
 10 12  1  0  0  0  0
 10 13  1  0  0  0  0
 13 14  1  0  0  0  0
 13 15  1  0  0  0  0
 13 16  1  0  0  0  0
 16 17  1  0  0  0  0
 16 18  1  0  0  0  0
 16 19  1  0  0  0  0
 19 20  1  0  0  0  0
 19 21  1  0  0  0  0
 19 22  1  0  0  0  0
  1 23  1  0  0  0  0
 23 24  1  0  0  0  0
 23 25  1  0  0  0  0
 23 26  1  0  0  0  0
M  END
> <VConfSearch Rank>
831

> <Conf_Id>
123

> <Delta U+W>
3.101

> <U+W>
24.943

> <U>
74.070

> <W>
-49.127

> <W(PB)>
-51.421

> <W(SA)>
2.295

> <Valence>
4.690

> <Coulomb>
69.115

> <VdW>
0.266

> <VdW6>
-6.809

> <VdW12>
7.075

> <Bond>
0.212

> <Angle>
1.133

> <Pdih>
3.345

> <Idih>
0.000

> <Tether>
0.000

$$$$
VeraChem MOL file


 26 25  0  0  0  0  0  0  0  0999 V2000     
   18.7082   21.2089   22.5896 N   0  3  0  0  0  0  0  0  0  0  0  0
   19.1484   21.9745   23.1233 H   0  0  0  0  0  0  0  0  0  0  0  0
   18.0926   20.7235   23.2593 H   0  0  0  0  0  0  0  0  0  0  0  0
   19.7688   20.2565   22.0723 C   0  0  0  0  0  0  0  0  0  0  0  0
   20.3947   20.8114   21.3686 H   0  0  0  0  0  0  0  0  0  0  0  0
   19.2652   19.4567   21.5234 H   0  0  0  0  0  0  0  0  0  0  0  0
   20.6570   19.6482   23.1755 C   0  0  0  0  0  0  0  0  0  0  0  0
   21.4526   19.0691   22.6936 H   0  0  0  0  0  0  0  0  0  0  0  0
   21.1562   20.4553   23.7279 H   0  0  0  0  0  0  0  0  0  0  0  0
   19.8599   18.7519   24.1575 C   0  0  0  0  0  0  0  0  0  0  0  0
   19.2798   18.0002   23.6045 H   0  0  0  0  0  0  0  0  0  0  0  0
   19.1258   19.3766   24.6836 H   0  0  0  0  0  0  0  0  0  0  0  0
   20.7525   18.0579   25.2196 C   0  0  0  0  0  0  0  0  0  0  0  0
   21.6374   18.6724   25.4353 H   0  0  0  0  0  0  0  0  0  0  0  0
   20.1893   18.0105   26.1620 H   0  0  0  0  0  0  0  0  0  0  0  0
   21.1818   16.6120   24.8610 C   0  0  0  0  0  0  0  0  0  0  0  0
   20.2897   15.9801   24.7483 H   0  0  0  0  0  0  0  0  0  0  0  0
   21.7438   16.1951   25.7085 H   0  0  0  0  0  0  0  0  0  0  0  0
   22.0510   16.5021   23.5891 C   0  0  0  0  0  0  0  0  0  0  0  0
   22.9226   17.1669   23.6458 H   0  0  0  0  0  0  0  0  0  0  0  0
   21.4758   16.7542   22.6897 H   0  0  0  0  0  0  0  0  0  0  0  0
   22.4198   15.4758   23.4643 H   0  0  0  0  0  0  0  0  0  0  0  0
   17.8984   21.7645   21.4263 C   0  0  0  0  0  0  0  0  0  0  0  0
   17.4173   20.9390   20.8970 H   0  0  0  0  0  0  0  0  0  0  0  0
   17.1388   22.4478   21.8126 H   0  0  0  0  0  0  0  0  0  0  0  0
   18.5658   22.3003   20.7478 H   0  0  0  0  0  0  0  0  0  0  0  0
  1  2  1  0  0  0  0
  1  3  1  0  0  0  0
  1  4  1  0  0  0  0
  4  5  1  0  0  0  0
  4  6  1  0  0  0  0
  4  7  1  0  0  0  0
  7  8  1  0  0  0  0
  7  9  1  0  0  0  0
  7 10  1  0  0  0  0
 10 11  1  0  0  0  0
 10 12  1  0  0  0  0
 10 13  1  0  0  0  0
 13 14  1  0  0  0  0
 13 15  1  0  0  0  0
 13 16  1  0  0  0  0
 16 17  1  0  0  0  0
 16 18  1  0  0  0  0
 16 19  1  0  0  0  0
 19 20  1  0  0  0  0
 19 21  1  0  0  0  0
 19 22  1  0  0  0  0
  1 23  1  0  0  0  0
 23 24  1  0  0  0  0
 23 25  1  0  0  0  0
 23 26  1  0  0  0  0
M  END
> <VConfSearch Rank>
832

> <Conf_Id>
111

> <Delta U+W>
3.383

> <U+W>
25.225

> <U>
74.516

> <W>
-49.292

> <W(PB)>
-51.558

> <W(SA)>
2.266

> <Valence>
4.842

> <Coulomb>
69.333

> <VdW>
0.342

> <VdW6>
-7.369

> <VdW12>
7.711

> <Bond>
0.232

> <Angle>
1.153

> <Pdih>
3.457

> <Idih>
0.000

> <Tether>
0.000

$$$$
VeraChem MOL file


 26 25  0  0  0  0  0  0  0  0999 V2000     
   19.9082   17.0712   24.5242 N   0  3  0  0  0  0  0  0  0  0  0  0
   18.9565   16.6964   24.6593 H   0  0  0  0  0  0  0  0  0  0  0  0
   19.9011   18.0078   24.9553 H   0  0  0  0  0  0  0  0  0  0  0  0
   20.2185   17.1850   23.0445 C   0  0  0  0  0  0  0  0  0  0  0  0
   20.2051   16.1758   22.6249 H   0  0  0  0  0  0  0  0  0  0  0  0
   21.2317   17.5805   22.9424 H   0  0  0  0  0  0  0  0  0  0  0  0
   19.2288   18.0762   22.2657 C   0  0  0  0  0  0  0  0  0  0  0  0
   19.5034   18.0608   21.2026 H   0  0  0  0  0  0  0  0  0  0  0  0
   18.2248   17.6357   22.3279 H   0  0  0  0  0  0  0  0  0  0  0  0
   19.1741   19.5450   22.7575 C   0  0  0  0  0  0  0  0  0  0  0  0
   18.8160   19.5796   23.7950 H   0  0  0  0  0  0  0  0  0  0  0  0
   18.4233   20.0760   22.1581 H   0  0  0  0  0  0  0  0  0  0  0  0
   20.5364   20.2765   22.6483 C   0  0  0  0  0  0  0  0  0  0  0  0
   21.2940   19.7333   23.2283 H   0  0  0  0  0  0  0  0  0  0  0  0
   20.8800   20.2654   21.6047 H   0  0  0  0  0  0  0  0  0  0  0  0
   20.4949   21.7363   23.1621 C   0  0  0  0  0  0  0  0  0  0  0  0
   21.5172   22.1398   23.1578 H   0  0  0  0  0  0  0  0  0  0  0  0
   20.1632   21.7530   24.2097 H   0  0  0  0  0  0  0  0  0  0  0  0
   19.5924   22.6632   22.3159 C   0  0  0  0  0  0  0  0  0  0  0  0
   18.5361   22.3768   22.3898 H   0  0  0  0  0  0  0  0  0  0  0  0
   19.8828   22.6389   21.2576 H   0  0  0  0  0  0  0  0  0  0  0  0
   19.6764   23.7014   22.6625 H   0  0  0  0  0  0  0  0  0  0  0  0
   20.9372   16.1781   25.2029 C   0  0  0  0  0  0  0  0  0  0  0  0
   20.7025   16.1059   26.2673 H   0  0  0  0  0  0  0  0  0  0  0  0
   20.9048   15.1848   24.7499 H   0  0  0  0  0  0  0  0  0  0  0  0
   21.9310   16.6120   25.0728 H   0  0  0  0  0  0  0  0  0  0  0  0
  1  2  1  0  0  0  0
  1  3  1  0  0  0  0
  1  4  1  0  0  0  0
  4  5  1  0  0  0  0
  4  6  1  0  0  0  0
  4  7  1  0  0  0  0
  7  8  1  0  0  0  0
  7  9  1  0  0  0  0
  7 10  1  0  0  0  0
 10 11  1  0  0  0  0
 10 12  1  0  0  0  0
 10 13  1  0  0  0  0
 13 14  1  0  0  0  0
 13 15  1  0  0  0  0
 13 16  1  0  0  0  0
 16 17  1  0  0  0  0
 16 18  1  0  0  0  0
 16 19  1  0  0  0  0
 19 20  1  0  0  0  0
 19 21  1  0  0  0  0
 19 22  1  0  0  0  0
  1 23  1  0  0  0  0
 23 24  1  0  0  0  0
 23 25  1  0  0  0  0
 23 26  1  0  0  0  0
M  END
> <VConfSearch Rank>
833

> <Conf_Id>
126

> <Delta U+W>
1.519

> <U+W>
23.361

> <U>
72.579

> <W>
-49.218

> <W(PB)>
-51.496

> <W(SA)>
2.279

> <Valence>
2.678

> <Coulomb>
69.622

> <VdW>
0.279

> <VdW6>
-7.328

> <VdW12>
7.608

> <Bond>
0.212

> <Angle>
0.911

> <Pdih>
1.555

> <Idih>
0.000

> <Tether>
0.000

$$$$
VeraChem MOL file


 26 25  0  0  0  0  0  0  0  0999 V2000     
   20.6107   21.1199   24.4856 N   0  3  0  0  0  0  0  0  0  0  0  0
   21.2013   20.7177   23.7422 H   0  0  0  0  0  0  0  0  0  0  0  0
   21.1320   20.9729   25.3638 H   0  0  0  0  0  0  0  0  0  0  0  0
   19.2813   20.3931   24.5405 C   0  0  0  0  0  0  0  0  0  0  0  0
   18.7592   20.5746   23.5982 H   0  0  0  0  0  0  0  0  0  0  0  0
   18.6925   20.8403   25.3455 H   0  0  0  0  0  0  0  0  0  0  0  0
   19.4093   18.8748   24.7829 C   0  0  0  0  0  0  0  0  0  0  0  0
   19.8827   18.7066   25.7593 H   0  0  0  0  0  0  0  0  0  0  0  0
   18.4018   18.4440   24.8541 H   0  0  0  0  0  0  0  0  0  0  0  0
   20.2101   18.1224   23.6898 C   0  0  0  0  0  0  0  0  0  0  0  0
   20.2633   17.0640   23.9761 H   0  0  0  0  0  0  0  0  0  0  0  0
   21.2464   18.4848   23.6683 H   0  0  0  0  0  0  0  0  0  0  0  0
   19.5816   18.2465   22.2782 C   0  0  0  0  0  0  0  0  0  0  0  0
   18.5542   17.8574   22.2948 H   0  0  0  0  0  0  0  0  0  0  0  0
   19.5059   19.3060   22.0004 H   0  0  0  0  0  0  0  0  0  0  0  0
   20.3910   17.5188   21.1772 C   0  0  0  0  0  0  0  0  0  0  0  0
   21.4167   17.9124   21.1475 H   0  0  0  0  0  0  0  0  0  0  0  0
   19.9447   17.7524   20.2004 H   0  0  0  0  0  0  0  0  0  0  0  0
   20.4279   15.9832   21.3512 C   0  0  0  0  0  0  0  0  0  0  0  0
   19.4136   15.5685   21.4169 H   0  0  0  0  0  0  0  0  0  0  0  0
   20.9784   15.6916   22.2540 H   0  0  0  0  0  0  0  0  0  0  0  0
   20.9276   15.5119   20.4950 H   0  0  0  0  0  0  0  0  0  0  0  0
   20.3807   22.6047   24.2411 C   0  0  0  0  0  0  0  0  0  0  0  0
   19.8562   22.7354   23.2920 H   0  0  0  0  0  0  0  0  0  0  0  0
   19.7791   23.0136   25.0558 H   0  0  0  0  0  0  0  0  0  0  0  0
   21.3456   23.1152   24.2029 H   0  0  0  0  0  0  0  0  0  0  0  0
  1  2  1  0  0  0  0
  1  3  1  0  0  0  0
  1  4  1  0  0  0  0
  4  5  1  0  0  0  0
  4  6  1  0  0  0  0
  4  7  1  0  0  0  0
  7  8  1  0  0  0  0
  7  9  1  0  0  0  0
  7 10  1  0  0  0  0
 10 11  1  0  0  0  0
 10 12  1  0  0  0  0
 10 13  1  0  0  0  0
 13 14  1  0  0  0  0
 13 15  1  0  0  0  0
 13 16  1  0  0  0  0
 16 17  1  0  0  0  0
 16 18  1  0  0  0  0
 16 19  1  0  0  0  0
 19 20  1  0  0  0  0
 19 21  1  0  0  0  0
 19 22  1  0  0  0  0
  1 23  1  0  0  0  0
 23 24  1  0  0  0  0
 23 25  1  0  0  0  0
 23 26  1  0  0  0  0
M  END
> <VConfSearch Rank>
834

> <Conf_Id>
134

> <Delta U+W>
1.464

> <U+W>
23.306

> <U>
72.579

> <W>
-49.273

> <W(PB)>
-51.540

> <W(SA)>
2.267

> <Valence>
2.677

> <Coulomb>
69.622

> <VdW>
0.280

> <VdW6>
-7.328

> <VdW12>
7.608

> <Bond>
0.212

> <Angle>
0.911

> <Pdih>
1.555

> <Idih>
0.000

> <Tether>
0.000

$$$$
VeraChem MOL file


 26 25  0  0  0  0  0  0  0  0999 V2000     
   20.9368   16.4072   23.3265 N   0  3  0  0  0  0  0  0  0  0  0  0
   20.0965   16.2354   23.9002 H   0  0  0  0  0  0  0  0  0  0  0  0
   21.7230   16.4409   23.9940 H   0  0  0  0  0  0  0  0  0  0  0  0
   20.8118   17.7306   22.5987 C   0  0  0  0  0  0  0  0  0  0  0  0
   19.9663   17.6561   21.9101 H   0  0  0  0  0  0  0  0  0  0  0  0
   21.7220   17.8777   22.0118 H   0  0  0  0  0  0  0  0  0  0  0  0
   20.6058   18.9282   23.5437 C   0  0  0  0  0  0  0  0  0  0  0  0
   19.7000   18.7610   24.1402 H   0  0  0  0  0  0  0  0  0  0  0  0
   21.4493   18.9902   24.2441 H   0  0  0  0  0  0  0  0  0  0  0  0
   20.4851   20.2535   22.7553 C   0  0  0  0  0  0  0  0  0  0  0  0
   19.6183   20.2079   22.0825 H   0  0  0  0  0  0  0  0  0  0  0  0
   21.3648   20.3634   22.1060 H   0  0  0  0  0  0  0  0  0  0  0  0
   20.3872   21.5084   23.6612 C   0  0  0  0  0  0  0  0  0  0  0  0
   21.3130   21.6003   24.2457 H   0  0  0  0  0  0  0  0  0  0  0  0
   20.3462   22.4015   23.0224 H   0  0  0  0  0  0  0  0  0  0  0  0
   19.1793   21.5321   24.6326 C   0  0  0  0  0  0  0  0  0  0  0  0
   19.2187   22.4624   25.2163 H   0  0  0  0  0  0  0  0  0  0  0  0
   19.2632   20.7167   25.3634 H   0  0  0  0  0  0  0  0  0  0  0  0
   17.8120   21.4524   23.9163 C   0  0  0  0  0  0  0  0  0  0  0  0
   17.7124   22.2477   23.1663 H   0  0  0  0  0  0  0  0  0  0  0  0
   16.9926   21.5669   24.6377 H   0  0  0  0  0  0  0  0  0  0  0  0
   17.6765   20.4866   23.4139 H   0  0  0  0  0  0  0  0  0  0  0  0
   21.1370   15.2806   22.3222 C   0  0  0  0  0  0  0  0  0  0  0  0
   22.0487   15.4671   21.7503 H   0  0  0  0  0  0  0  0  0  0  0  0
   21.2257   14.3336   22.8592 H   0  0  0  0  0  0  0  0  0  0  0  0
   20.2784   15.2435   21.6482 H   0  0  0  0  0  0  0  0  0  0  0  0
  1  2  1  0  0  0  0
  1  3  1  0  0  0  0
  1  4  1  0  0  0  0
  4  5  1  0  0  0  0
  4  6  1  0  0  0  0
  4  7  1  0  0  0  0
  7  8  1  0  0  0  0
  7  9  1  0  0  0  0
  7 10  1  0  0  0  0
 10 11  1  0  0  0  0
 10 12  1  0  0  0  0
 10 13  1  0  0  0  0
 13 14  1  0  0  0  0
 13 15  1  0  0  0  0
 13 16  1  0  0  0  0
 16 17  1  0  0  0  0
 16 18  1  0  0  0  0
 16 19  1  0  0  0  0
 19 20  1  0  0  0  0
 19 21  1  0  0  0  0
 19 22  1  0  0  0  0
  1 23  1  0  0  0  0
 23 24  1  0  0  0  0
 23 25  1  0  0  0  0
 23 26  1  0  0  0  0
M  END
> <VConfSearch Rank>
835

> <Conf_Id>
30

> <Delta U+W>
0.910

> <U+W>
22.752

> <U>
71.870

> <W>
-49.118

> <W(PB)>
-51.409

> <W(SA)>
2.290

> <Valence>
2.682

> <Coulomb>
68.933

> <VdW>
0.255

> <VdW6>
-6.833

> <VdW12>
7.088

> <Bond>
0.205

> <Angle>
1.003

> <Pdih>
1.473

> <Idih>
0.000

> <Tether>
0.000

$$$$
VeraChem MOL file


 26 25  0  0  0  0  0  0  0  0999 V2000     
   22.6229   18.2256   23.6932 N   0  3  0  0  0  0  0  0  0  0  0  0
   22.7906   18.5240   24.6667 H   0  0  0  0  0  0  0  0  0  0  0  0
   22.8780   19.0372   23.1093 H   0  0  0  0  0  0  0  0  0  0  0  0
   21.1606   17.8790   23.4973 C   0  0  0  0  0  0  0  0  0  0  0  0
   20.9303   17.0233   24.1370 H   0  0  0  0  0  0  0  0  0  0  0  0
   21.0242   17.5769   22.4558 H   0  0  0  0  0  0  0  0  0  0  0  0
   20.2093   19.0434   23.8274 C   0  0  0  0  0  0  0  0  0  0  0  0
   20.3605   19.3544   24.8696 H   0  0  0  0  0  0  0  0  0  0  0  0
   20.4617   19.9020   23.1924 H   0  0  0  0  0  0  0  0  0  0  0  0
   18.7313   18.6410   23.6132 C   0  0  0  0  0  0  0  0  0  0  0  0
   18.5206   17.7339   24.1967 H   0  0  0  0  0  0  0  0  0  0  0  0
   18.5693   18.3670   22.5622 H   0  0  0  0  0  0  0  0  0  0  0  0
   17.7210   19.7390   24.0362 C   0  0  0  0  0  0  0  0  0  0  0  0
   16.7020   19.3554   23.8893 H   0  0  0  0  0  0  0  0  0  0  0  0
   17.8206   19.9195   25.1155 H   0  0  0  0  0  0  0  0  0  0  0  0
   17.8596   21.0904   23.2894 C   0  0  0  0  0  0  0  0  0  0  0  0
   18.8274   21.5551   23.5208 H   0  0  0  0  0  0  0  0  0  0  0  0
   17.0963   21.7815   23.6733 H   0  0  0  0  0  0  0  0  0  0  0  0
   17.6929   20.9669   21.7577 C   0  0  0  0  0  0  0  0  0  0  0  0
   18.5045   20.3795   21.3106 H   0  0  0  0  0  0  0  0  0  0  0  0
   17.7061   21.9589   21.2882 H   0  0  0  0  0  0  0  0  0  0  0  0
   16.7393   20.4871   21.5019 H   0  0  0  0  0  0  0  0  0  0  0  0
   23.4911   17.0241   23.3460 C   0  0  0  0  0  0  0  0  0  0  0  0
   24.5413   17.2870   23.4914 H   0  0  0  0  0  0  0  0  0  0  0  0
   23.2261   16.1891   23.9982 H   0  0  0  0  0  0  0  0  0  0  0  0
   23.3211   16.7476   22.3031 H   0  0  0  0  0  0  0  0  0  0  0  0
  1  2  1  0  0  0  0
  1  3  1  0  0  0  0
  1  4  1  0  0  0  0
  4  5  1  0  0  0  0
  4  6  1  0  0  0  0
  4  7  1  0  0  0  0
  7  8  1  0  0  0  0
  7  9  1  0  0  0  0
  7 10  1  0  0  0  0
 10 11  1  0  0  0  0
 10 12  1  0  0  0  0
 10 13  1  0  0  0  0
 13 14  1  0  0  0  0
 13 15  1  0  0  0  0
 13 16  1  0  0  0  0
 16 17  1  0  0  0  0
 16 18  1  0  0  0  0
 16 19  1  0  0  0  0
 19 20  1  0  0  0  0
 19 21  1  0  0  0  0
 19 22  1  0  0  0  0
  1 23  1  0  0  0  0
 23 24  1  0  0  0  0
 23 25  1  0  0  0  0
 23 26  1  0  0  0  0
M  END
> <VConfSearch Rank>
836

> <Conf_Id>
29

> <Delta U+W>
0.886

> <U+W>
22.729

> <U>
71.870

> <W>
-49.141

> <W(PB)>
-51.404

> <W(SA)>
2.262

> <Valence>
2.682

> <Coulomb>
68.933

> <VdW>
0.255

> <VdW6>
-6.833

> <VdW12>
7.088

> <Bond>
0.205

> <Angle>
1.003

> <Pdih>
1.473

> <Idih>
0.000

> <Tether>
0.000

$$$$
VeraChem MOL file


 26 25  0  0  0  0  0  0  0  0999 V2000     
   17.6239   20.2302   23.2515 N   0  3  0  0  0  0  0  0  0  0  0  0
   17.6052   21.2173   22.9515 H   0  0  0  0  0  0  0  0  0  0  0  0
   17.7045   20.2571   24.2798 H   0  0  0  0  0  0  0  0  0  0  0  0
   18.8225   19.5240   22.6509 C   0  0  0  0  0  0  0  0  0  0  0  0
   18.7053   19.5283   21.5643 H   0  0  0  0  0  0  0  0  0  0  0  0
   18.8057   18.4872   22.9954 H   0  0  0  0  0  0  0  0  0  0  0  0
   20.1663   20.1751   23.0296 C   0  0  0  0  0  0  0  0  0  0  0  0
   20.1592   21.2259   22.7110 H   0  0  0  0  0  0  0  0  0  0  0  0
   20.2783   20.1849   24.1213 H   0  0  0  0  0  0  0  0  0  0  0  0
   21.3788   19.4636   22.3794 C   0  0  0  0  0  0  0  0  0  0  0  0
   22.3002   19.9846   22.6720 H   0  0  0  0  0  0  0  0  0  0  0  0
   21.3112   19.5731   21.2882 H   0  0  0  0  0  0  0  0  0  0  0  0
   21.5065   17.9535   22.7180 C   0  0  0  0  0  0  0  0  0  0  0  0
   20.6621   17.4077   22.2759 H   0  0  0  0  0  0  0  0  0  0  0  0
   22.4041   17.5581   22.2228 H   0  0  0  0  0  0  0  0  0  0  0  0
   21.5823   17.6207   24.2299 C   0  0  0  0  0  0  0  0  0  0  0  0
   21.6578   16.5304   24.3450 H   0  0  0  0  0  0  0  0  0  0  0  0
   20.6488   17.9112   24.7303 H   0  0  0  0  0  0  0  0  0  0  0  0
   22.7841   18.2804   24.9435 C   0  0  0  0  0  0  0  0  0  0  0  0
   22.8420   17.9469   25.9877 H   0  0  0  0  0  0  0  0  0  0  0  0
   22.6975   19.3740   24.9504 H   0  0  0  0  0  0  0  0  0  0  0  0
   23.7291   18.0135   24.4530 H   0  0  0  0  0  0  0  0  0  0  0  0
   16.3429   19.5210   22.8347 C   0  0  0  0  0  0  0  0  0  0  0  0
   15.4874   20.0395   23.2734 H   0  0  0  0  0  0  0  0  0  0  0  0
   16.2632   19.5343   21.7454 H   0  0  0  0  0  0  0  0  0  0  0  0
   16.3713   18.4890   23.1913 H   0  0  0  0  0  0  0  0  0  0  0  0
  1  2  1  0  0  0  0
  1  3  1  0  0  0  0
  1  4  1  0  0  0  0
  4  5  1  0  0  0  0
  4  6  1  0  0  0  0
  4  7  1  0  0  0  0
  7  8  1  0  0  0  0
  7  9  1  0  0  0  0
  7 10  1  0  0  0  0
 10 11  1  0  0  0  0
 10 12  1  0  0  0  0
 10 13  1  0  0  0  0
 13 14  1  0  0  0  0
 13 15  1  0  0  0  0
 13 16  1  0  0  0  0
 16 17  1  0  0  0  0
 16 18  1  0  0  0  0
 16 19  1  0  0  0  0
 19 20  1  0  0  0  0
 19 21  1  0  0  0  0
 19 22  1  0  0  0  0
  1 23  1  0  0  0  0
 23 24  1  0  0  0  0
 23 25  1  0  0  0  0
 23 26  1  0  0  0  0
M  END
> <VConfSearch Rank>
837

> <Conf_Id>
82

> <Delta U+W>
1.026

> <U+W>
22.868

> <U>
72.455

> <W>
-49.586

> <W(PB)>
-51.821

> <W(SA)>
2.234

> <Valence>
2.908

> <Coulomb>
69.435

> <VdW>
0.112

> <VdW6>
-7.765

> <VdW12>
7.877

> <Bond>
0.233

> <Angle>
1.170

> <Pdih>
1.506

> <Idih>
0.000

> <Tether>
0.000

$$$$
VeraChem MOL file


 26 25  0  0  0  0  0  0  0  0999 V2000     
   19.6219   18.2212   20.8629 N   0  3  0  0  0  0  0  0  0  0  0  0
   20.2755   18.9586   20.5570 H   0  0  0  0  0  0  0  0  0  0  0  0
   18.7074   18.4809   20.4615 H   0  0  0  0  0  0  0  0  0  0  0  0
   19.5388   18.1899   22.3756 C   0  0  0  0  0  0  0  0  0  0  0  0
   20.5249   17.9152   22.7579 H   0  0  0  0  0  0  0  0  0  0  0  0
   18.8296   17.4074   22.6570 H   0  0  0  0  0  0  0  0  0  0  0  0
   19.0995   19.5326   22.9897 C   0  0  0  0  0  0  0  0  0  0  0  0
   19.8028   20.3220   22.6953 H   0  0  0  0  0  0  0  0  0  0  0  0
   18.1245   19.8170   22.5725 H   0  0  0  0  0  0  0  0  0  0  0  0
   18.9851   19.4743   24.5333 C   0  0  0  0  0  0  0  0  0  0  0  0
   18.1882   18.7677   24.8035 H   0  0  0  0  0  0  0  0  0  0  0  0
   18.6518   20.4520   24.9059 H   0  0  0  0  0  0  0  0  0  0  0  0
   20.2875   19.0553   25.2678 C   0  0  0  0  0  0  0  0  0  0  0  0
   20.0982   19.0654   26.3501 H   0  0  0  0  0  0  0  0  0  0  0  0
   20.5265   18.0122   25.0207 H   0  0  0  0  0  0  0  0  0  0  0  0
   21.5263   19.9378   24.9689 C   0  0  0  0  0  0  0  0  0  0  0  0
   21.8011   19.8604   23.9084 H   0  0  0  0  0  0  0  0  0  0  0  0
   22.3830   19.5403   25.5308 H   0  0  0  0  0  0  0  0  0  0  0  0
   21.3277   21.4225   25.3496 C   0  0  0  0  0  0  0  0  0  0  0  0
   20.5516   21.8954   24.7351 H   0  0  0  0  0  0  0  0  0  0  0  0
   22.2575   21.9860   25.1991 H   0  0  0  0  0  0  0  0  0  0  0  0
   21.0405   21.5243   26.4042 H   0  0  0  0  0  0  0  0  0  0  0  0
   20.0677   16.8624   20.3407 C   0  0  0  0  0  0  0  0  0  0  0  0
   19.3441   16.1044   20.6486 H   0  0  0  0  0  0  0  0  0  0  0  0
   20.1231   16.8983   19.2504 H   0  0  0  0  0  0  0  0  0  0  0  0
   21.0510   16.6244   20.7524 H   0  0  0  0  0  0  0  0  0  0  0  0
  1  2  1  0  0  0  0
  1  3  1  0  0  0  0
  1  4  1  0  0  0  0
  4  5  1  0  0  0  0
  4  6  1  0  0  0  0
  4  7  1  0  0  0  0
  7  8  1  0  0  0  0
  7  9  1  0  0  0  0
  7 10  1  0  0  0  0
 10 11  1  0  0  0  0
 10 12  1  0  0  0  0
 10 13  1  0  0  0  0
 13 14  1  0  0  0  0
 13 15  1  0  0  0  0
 13 16  1  0  0  0  0
 16 17  1  0  0  0  0
 16 18  1  0  0  0  0
 16 19  1  0  0  0  0
 19 20  1  0  0  0  0
 19 21  1  0  0  0  0
 19 22  1  0  0  0  0
  1 23  1  0  0  0  0
 23 24  1  0  0  0  0
 23 25  1  0  0  0  0
 23 26  1  0  0  0  0
M  END
> <VConfSearch Rank>
838

> <Conf_Id>
71

> <Delta U+W>
1.096

> <U+W>
22.938

> <U>
72.455

> <W>
-49.517

> <W(PB)>
-51.795

> <W(SA)>
2.278

> <Valence>
2.908

> <Coulomb>
69.435

> <VdW>
0.112

> <VdW6>
-7.766

> <VdW12>
7.877

> <Bond>
0.233

> <Angle>
1.170

> <Pdih>
1.506

> <Idih>
0.000

> <Tether>
0.000

$$$$
VeraChem MOL file


 26 25  0  0  0  0  0  0  0  0999 V2000     
   21.0396   21.2768   23.8281 N   0  3  0  0  0  0  0  0  0  0  0  0
   20.1882   20.9140   24.2822 H   0  0  0  0  0  0  0  0  0  0  0  0
   20.8415   22.2720   23.6380 H   0  0  0  0  0  0  0  0  0  0  0  0
   21.2809   20.5450   22.5173 C   0  0  0  0  0  0  0  0  0  0  0  0
   22.1989   20.9441   22.0786 H   0  0  0  0  0  0  0  0  0  0  0  0
   20.4548   20.7946   21.8472 H   0  0  0  0  0  0  0  0  0  0  0  0
   21.3900   19.0075   22.6344 C   0  0  0  0  0  0  0  0  0  0  0  0
   21.5549   18.5907   21.6321 H   0  0  0  0  0  0  0  0  0  0  0  0
   22.2832   18.7501   23.2182 H   0  0  0  0  0  0  0  0  0  0  0  0
   20.1506   18.3297   23.2715 C   0  0  0  0  0  0  0  0  0  0  0  0
   20.0230   18.6811   24.3040 H   0  0  0  0  0  0  0  0  0  0  0  0
   20.3493   17.2522   23.3383 H   0  0  0  0  0  0  0  0  0  0  0  0
   18.8453   18.5671   22.4698 C   0  0  0  0  0  0  0  0  0  0  0  0
   18.6610   19.6453   22.3761 H   0  0  0  0  0  0  0  0  0  0  0  0
   18.9648   18.1846   21.4468 H   0  0  0  0  0  0  0  0  0  0  0  0
   17.5973   17.9212   23.1195 C   0  0  0  0  0  0  0  0  0  0  0  0
   16.7068   18.2314   22.5551 H   0  0  0  0  0  0  0  0  0  0  0  0
   17.4650   18.3099   24.1388 H   0  0  0  0  0  0  0  0  0  0  0  0
   17.6493   16.3766   23.1545 C   0  0  0  0  0  0  0  0  0  0  0  0
   18.4491   16.0138   23.8116 H   0  0  0  0  0  0  0  0  0  0  0  0
   17.8141   15.9639   22.1507 H   0  0  0  0  0  0  0  0  0  0  0  0
   16.7028   15.9693   23.5329 H   0  0  0  0  0  0  0  0  0  0  0  0
   22.2420   21.1548   24.7569 C   0  0  0  0  0  0  0  0  0  0  0  0
   22.0447   21.7163   25.6727 H   0  0  0  0  0  0  0  0  0  0  0  0
   22.4055   20.1027   24.9991 H   0  0  0  0  0  0  0  0  0  0  0  0
   23.1237   21.5618   24.2573 H   0  0  0  0  0  0  0  0  0  0  0  0
  1  2  1  0  0  0  0
  1  3  1  0  0  0  0
  1  4  1  0  0  0  0
  4  5  1  0  0  0  0
  4  6  1  0  0  0  0
  4  7  1  0  0  0  0
  7  8  1  0  0  0  0
  7  9  1  0  0  0  0
  7 10  1  0  0  0  0
 10 11  1  0  0  0  0
 10 12  1  0  0  0  0
 10 13  1  0  0  0  0
 13 14  1  0  0  0  0
 13 15  1  0  0  0  0
 13 16  1  0  0  0  0
 16 17  1  0  0  0  0
 16 18  1  0  0  0  0
 16 19  1  0  0  0  0
 19 20  1  0  0  0  0
 19 21  1  0  0  0  0
 19 22  1  0  0  0  0
  1 23  1  0  0  0  0
 23 24  1  0  0  0  0
 23 25  1  0  0  0  0
 23 26  1  0  0  0  0
M  END
> <VConfSearch Rank>
839

> <Conf_Id>
84

> <Delta U+W>
1.456

> <U+W>
23.298

> <U>
73.042

> <W>
-49.744

> <W(PB)>
-51.966

> <W(SA)>
2.222

> <Valence>
2.938

> <Coulomb>
69.625

> <VdW>
0.478

> <VdW6>
-8.182

> <VdW12>
8.660

> <Bond>
0.253

> <Angle>
1.038

> <Pdih>
1.647

> <Idih>
0.000

> <Tether>
0.000

$$$$
VeraChem MOL file


 26 25  0  0  0  0  0  0  0  0999 V2000     
   20.3351   21.3534   22.5563 N   0  3  0  0  0  0  0  0  0  0  0  0
   20.3641   20.5279   21.9392 H   0  0  0  0  0  0  0  0  0  0  0  0
   21.2704   21.7837   22.4877 H   0  0  0  0  0  0  0  0  0  0  0  0
   20.0625   20.9230   23.9843 C   0  0  0  0  0  0  0  0  0  0  0  0
   19.0655   20.4775   24.0171 H   0  0  0  0  0  0  0  0  0  0  0  0
   20.0527   21.8225   24.6051 H   0  0  0  0  0  0  0  0  0  0  0  0
   21.0981   19.9258   24.5440 C   0  0  0  0  0  0  0  0  0  0  0  0
   22.0871   20.4027   24.5553 H   0  0  0  0  0  0  0  0  0  0  0  0
   20.8497   19.7130   25.5922 H   0  0  0  0  0  0  0  0  0  0  0  0
   21.1804   18.5928   23.7581 C   0  0  0  0  0  0  0  0  0  0  0  0
   21.9488   17.9602   24.2239 H   0  0  0  0  0  0  0  0  0  0  0  0
   21.5246   18.7833   22.7328 H   0  0  0  0  0  0  0  0  0  0  0  0
   19.8395   17.8203   23.7252 C   0  0  0  0  0  0  0  0  0  0  0  0
   19.4872   17.6530   24.7525 H   0  0  0  0  0  0  0  0  0  0  0  0
   19.0713   18.4206   23.2196 H   0  0  0  0  0  0  0  0  0  0  0  0
   19.9769   16.4622   23.0016 C   0  0  0  0  0  0  0  0  0  0  0  0
   20.7363   15.8479   23.5055 H   0  0  0  0  0  0  0  0  0  0  0  0
   20.3311   16.6233   21.9737 H   0  0  0  0  0  0  0  0  0  0  0  0
   18.6383   15.6943   22.9671 C   0  0  0  0  0  0  0  0  0  0  0  0
   18.2749   15.4883   23.9824 H   0  0  0  0  0  0  0  0  0  0  0  0
   18.7560   14.7330   22.4503 H   0  0  0  0  0  0  0  0  0  0  0  0
   17.8668   16.2686   22.4379 H   0  0  0  0  0  0  0  0  0  0  0  0
   19.2615   22.3287   22.0944 C   0  0  0  0  0  0  0  0  0  0  0  0
   19.2707   23.2066   22.7441 H   0  0  0  0  0  0  0  0  0  0  0  0
   19.4695   22.6294   21.0651 H   0  0  0  0  0  0  0  0  0  0  0  0
   18.2861   21.8401   22.1462 H   0  0  0  0  0  0  0  0  0  0  0  0
  1  2  1  0  0  0  0
  1  3  1  0  0  0  0
  1  4  1  0  0  0  0
  4  5  1  0  0  0  0
  4  6  1  0  0  0  0
  4  7  1  0  0  0  0
  7  8  1  0  0  0  0
  7  9  1  0  0  0  0
  7 10  1  0  0  0  0
 10 11  1  0  0  0  0
 10 12  1  0  0  0  0
 10 13  1  0  0  0  0
 13 14  1  0  0  0  0
 13 15  1  0  0  0  0
 13 16  1  0  0  0  0
 16 17  1  0  0  0  0
 16 18  1  0  0  0  0
 16 19  1  0  0  0  0
 19 20  1  0  0  0  0
 19 21  1  0  0  0  0
 19 22  1  0  0  0  0
  1 23  1  0  0  0  0
 23 24  1  0  0  0  0
 23 25  1  0  0  0  0
 23 26  1  0  0  0  0
M  END
> <VConfSearch Rank>
840

> <Conf_Id>
73

> <Delta U+W>
0.884

> <U+W>
22.726

> <U>
71.905

> <W>
-49.179

> <W(PB)>
-51.494

> <W(SA)>
2.315

> <Valence>
2.125

> <Coulomb>
69.686

> <VdW>
0.093

> <VdW6>
-6.766

> <VdW12>
6.859

> <Bond>
0.169

> <Angle>
0.621

> <Pdih>
1.336

> <Idih>
0.000

> <Tether>
0.000

$$$$
VeraChem MOL file


 26 25  0  0  0  0  0  0  0  0999 V2000     
   22.0254   17.0199   24.8081 N   0  3  0  0  0  0  0  0  0  0  0  0
   21.3614   16.7748   25.5591 H   0  0  0  0  0  0  0  0  0  0  0  0
   22.6402   17.7442   25.2110 H   0  0  0  0  0  0  0  0  0  0  0  0
   21.2796   17.5739   23.6108 C   0  0  0  0  0  0  0  0  0  0  0  0
   20.6362   16.7813   23.2205 H   0  0  0  0  0  0  0  0  0  0  0  0
   22.0167   17.8276   22.8447 H   0  0  0  0  0  0  0  0  0  0  0  0
   20.4301   18.8140   23.9432 C   0  0  0  0  0  0  0  0  0  0  0  0
   19.7021   18.5590   24.7248 H   0  0  0  0  0  0  0  0  0  0  0  0
   21.0780   19.6018   24.3503 H   0  0  0  0  0  0  0  0  0  0  0  0
   19.6895   19.3429   22.6949 C   0  0  0  0  0  0  0  0  0  0  0  0
   19.0465   18.5502   22.2874 H   0  0  0  0  0  0  0  0  0  0  0  0
   20.4208   19.5916   21.9132 H   0  0  0  0  0  0  0  0  0  0  0  0
   18.8330   20.5888   23.0167 C   0  0  0  0  0  0  0  0  0  0  0  0
   18.1015   20.3403   23.7982 H   0  0  0  0  0  0  0  0  0  0  0  0
   19.4757   21.3816   23.4241 H   0  0  0  0  0  0  0  0  0  0  0  0
   18.0924   21.1176   21.7680 C   0  0  0  0  0  0  0  0  0  0  0  0
   17.4461   20.3288   21.3580 H   0  0  0  0  0  0  0  0  0  0  0  0
   18.8201   21.3700   20.9840 H   0  0  0  0  0  0  0  0  0  0  0  0
   17.2382   22.3616   22.0932 C   0  0  0  0  0  0  0  0  0  0  0  0
   16.7205   22.7220   21.1948 H   0  0  0  0  0  0  0  0  0  0  0  0
   17.8623   23.1808   22.4735 H   0  0  0  0  0  0  0  0  0  0  0  0
   16.4775   22.1314   22.8505 H   0  0  0  0  0  0  0  0  0  0  0  0
   22.8372   15.8003   24.3940 C   0  0  0  0  0  0  0  0  0  0  0  0
   23.5546   16.0910   23.6235 H   0  0  0  0  0  0  0  0  0  0  0  0
   23.3691   15.4113   25.2652 H   0  0  0  0  0  0  0  0  0  0  0  0
   22.1626   15.0359   24.0022 H   0  0  0  0  0  0  0  0  0  0  0  0
  1  2  1  0  0  0  0
  1  3  1  0  0  0  0
  1  4  1  0  0  0  0
  4  5  1  0  0  0  0
  4  6  1  0  0  0  0
  4  7  1  0  0  0  0
  7  8  1  0  0  0  0
  7  9  1  0  0  0  0
  7 10  1  0  0  0  0
 10 11  1  0  0  0  0
 10 12  1  0  0  0  0
 10 13  1  0  0  0  0
 13 14  1  0  0  0  0
 13 15  1  0  0  0  0
 13 16  1  0  0  0  0
 16 17  1  0  0  0  0
 16 18  1  0  0  0  0
 16 19  1  0  0  0  0
 19 20  1  0  0  0  0
 19 21  1  0  0  0  0
 19 22  1  0  0  0  0
  1 23  1  0  0  0  0
 23 24  1  0  0  0  0
 23 25  1  0  0  0  0
 23 26  1  0  0  0  0
M  END
> <VConfSearch Rank>
841

> <Conf_Id>
11

> <Delta U+W>
0.000

> <U+W>
21.842

> <U>
70.357

> <W>
-48.515

> <W(PB)>
-50.856

> <W(SA)>
2.341

> <Valence>
1.714

> <Coulomb>
68.480

> <VdW>
0.163

> <VdW6>
-5.268

> <VdW12>
5.431

> <Bond>
0.126

> <Angle>
0.350

> <Pdih>
1.238

> <Idih>
0.000

> <Tether>
0.000

$$$$
VeraChem MOL file


 26 25  0  0  0  0  0  0  0  0999 V2000     
   23.2162   19.3793   24.2584 N   0  3  0  0  0  0  0  0  0  0  0  0
   23.7451   19.4718   25.1402 H   0  0  0  0  0  0  0  0  0  0  0  0
   23.3574   20.2762   23.7683 H   0  0  0  0  0  0  0  0  0  0  0  0
   21.7425   19.1764   24.5684 C   0  0  0  0  0  0  0  0  0  0  0  0
   21.4537   19.9455   25.2894 H   0  0  0  0  0  0  0  0  0  0  0  0
   21.6309   18.2016   25.0497 H   0  0  0  0  0  0  0  0  0  0  0  0
   20.8119   19.2654   23.3417 C   0  0  0  0  0  0  0  0  0  0  0  0
   20.9670   20.2277   22.8361 H   0  0  0  0  0  0  0  0  0  0  0  0
   21.0702   18.4779   22.6219 H   0  0  0  0  0  0  0  0  0  0  0  0
   19.3283   19.1247   23.7485 C   0  0  0  0  0  0  0  0  0  0  0  0
   19.0703   19.9119   24.4707 H   0  0  0  0  0  0  0  0  0  0  0  0
   19.1787   18.1634   24.2598 H   0  0  0  0  0  0  0  0  0  0  0  0
   18.3842   19.2135   22.5278 C   0  0  0  0  0  0  0  0  0  0  0  0
   18.5339   20.1745   22.0164 H   0  0  0  0  0  0  0  0  0  0  0  0
   18.6418   18.4262   21.8057 H   0  0  0  0  0  0  0  0  0  0  0  0
   16.9004   19.0728   22.9350 C   0  0  0  0  0  0  0  0  0  0  0  0
   16.6370   19.8598   23.6556 H   0  0  0  0  0  0  0  0  0  0  0  0
   16.7449   18.1117   23.4450 H   0  0  0  0  0  0  0  0  0  0  0  0
   15.9607   19.1619   21.7136 C   0  0  0  0  0  0  0  0  0  0  0  0
   14.9124   19.0599   22.0227 H   0  0  0  0  0  0  0  0  0  0  0  0
   16.1773   18.3654   20.9897 H   0  0  0  0  0  0  0  0  0  0  0  0
   16.0684   20.1272   21.2020 H   0  0  0  0  0  0  0  0  0  0  0  0
   23.7736   18.2202   23.4399 C   0  0  0  0  0  0  0  0  0  0  0  0
   23.2527   18.1702   22.4817 H   0  0  0  0  0  0  0  0  0  0  0  0
   24.8401   18.3836   23.2695 H   0  0  0  0  0  0  0  0  0  0  0  0
   23.6270   17.2887   23.9910 H   0  0  0  0  0  0  0  0  0  0  0  0
  1  2  1  0  0  0  0
  1  3  1  0  0  0  0
  1  4  1  0  0  0  0
  4  5  1  0  0  0  0
  4  6  1  0  0  0  0
  4  7  1  0  0  0  0
  7  8  1  0  0  0  0
  7  9  1  0  0  0  0
  7 10  1  0  0  0  0
 10 11  1  0  0  0  0
 10 12  1  0  0  0  0
 10 13  1  0  0  0  0
 13 14  1  0  0  0  0
 13 15  1  0  0  0  0
 13 16  1  0  0  0  0
 16 17  1  0  0  0  0
 16 18  1  0  0  0  0
 16 19  1  0  0  0  0
 19 20  1  0  0  0  0
 19 21  1  0  0  0  0
 19 22  1  0  0  0  0
  1 23  1  0  0  0  0
 23 24  1  0  0  0  0
 23 25  1  0  0  0  0
 23 26  1  0  0  0  0
M  END
> <VConfSearch Rank>
842

> <Conf_Id>
102

> <Delta U+W>
0.121

> <U+W>
21.963

> <U>
70.745

> <W>
-48.782

> <W(PB)>
-51.111

> <W(SA)>
2.329

> <Valence>
1.993

> <Coulomb>
68.323

> <VdW>
0.429

> <VdW6>
-5.973

> <VdW12>
6.402

> <Bond>
0.161

> <Angle>
0.472

> <Pdih>
1.360

> <Idih>
0.000

> <Tether>
0.000

$$$$
VeraChem MOL file


 26 25  0  0  0  0  0  0  0  0999 V2000     
   19.9935   15.6817   23.3962 N   0  3  0  0  0  0  0  0  0  0  0  0
   20.3230   15.5555   22.4267 H   0  0  0  0  0  0  0  0  0  0  0  0
   19.2910   14.9383   23.5374 H   0  0  0  0  0  0  0  0  0  0  0  0
   19.3334   17.0413   23.5541 C   0  0  0  0  0  0  0  0  0  0  0  0
   19.0350   17.1513   24.5997 H   0  0  0  0  0  0  0  0  0  0  0  0
   18.4279   17.0354   22.9420 H   0  0  0  0  0  0  0  0  0  0  0  0
   20.2153   18.2341   23.1320 C   0  0  0  0  0  0  0  0  0  0  0  0
   21.1149   18.2712   23.7600 H   0  0  0  0  0  0  0  0  0  0  0  0
   20.5509   18.0903   22.0965 H   0  0  0  0  0  0  0  0  0  0  0  0
   19.4495   19.5705   23.2497 C   0  0  0  0  0  0  0  0  0  0  0  0
   19.1098   19.7075   24.2859 H   0  0  0  0  0  0  0  0  0  0  0  0
   18.5480   19.5326   22.6224 H   0  0  0  0  0  0  0  0  0  0  0  0
   20.3222   20.7748   22.8283 C   0  0  0  0  0  0  0  0  0  0  0  0
   21.2235   20.8131   23.4557 H   0  0  0  0  0  0  0  0  0  0  0  0
   20.6622   20.6378   21.7924 H   0  0  0  0  0  0  0  0  0  0  0  0
   19.5560   22.1113   22.9460 C   0  0  0  0  0  0  0  0  0  0  0  0
   19.2156   22.2542   23.9813 H   0  0  0  0  0  0  0  0  0  0  0  0
   18.6546   22.0790   22.3180 H   0  0  0  0  0  0  0  0  0  0  0  0
   20.4306   23.3115   22.5246 C   0  0  0  0  0  0  0  0  0  0  0  0
   21.3239   23.3908   23.1578 H   0  0  0  0  0  0  0  0  0  0  0  0
   19.8695   24.2507   22.6149 H   0  0  0  0  0  0  0  0  0  0  0  0
   20.7585   23.2142   21.4815 H   0  0  0  0  0  0  0  0  0  0  0  0
   21.1395   15.5052   24.3860 C   0  0  0  0  0  0  0  0  0  0  0  0
   20.7576   15.6255   25.4022 H   0  0  0  0  0  0  0  0  0  0  0  0
   21.5630   14.5054   24.2674 H   0  0  0  0  0  0  0  0  0  0  0  0
   21.9080   16.2549   24.1874 H   0  0  0  0  0  0  0  0  0  0  0  0
  1  2  1  0  0  0  0
  1  3  1  0  0  0  0
  1  4  1  0  0  0  0
  4  5  1  0  0  0  0
  4  6  1  0  0  0  0
  4  7  1  0  0  0  0
  7  8  1  0  0  0  0
  7  9  1  0  0  0  0
  7 10  1  0  0  0  0
 10 11  1  0  0  0  0
 10 12  1  0  0  0  0
 10 13  1  0  0  0  0
 13 14  1  0  0  0  0
 13 15  1  0  0  0  0
 13 16  1  0  0  0  0
 16 17  1  0  0  0  0
 16 18  1  0  0  0  0
 16 19  1  0  0  0  0
 19 20  1  0  0  0  0
 19 21  1  0  0  0  0
 19 22  1  0  0  0  0
  1 23  1  0  0  0  0
 23 24  1  0  0  0  0
 23 25  1  0  0  0  0
 23 26  1  0  0  0  0
M  END
> <VConfSearch Rank>
843

> <Conf_Id>
37

> <Delta U+W>
0.125

> <U+W>
21.967

> <U>
70.745

> <W>
-48.778

> <W(PB)>
-51.115

> <W(SA)>
2.337

> <Valence>
1.993

> <Coulomb>
68.323

> <VdW>
0.429

> <VdW6>
-5.973

> <VdW12>
6.403

> <Bond>
0.161

> <Angle>
0.472

> <Pdih>
1.360

> <Idih>
0.000

> <Tether>
0.000

$$$$
VeraChem MOL file


 26 25  0  0  0  0  0  0  0  0999 V2000     
   21.1305   20.3875   25.8067 N   0  3  0  0  0  0  0  0  0  0  0  0
   22.0353   19.9656   26.0681 H   0  0  0  0  0  0  0  0  0  0  0  0
   20.4411   19.9854   26.4608 H   0  0  0  0  0  0  0  0  0  0  0  0
   20.7746   20.0197   24.3804 C   0  0  0  0  0  0  0  0  0  0  0  0
   21.5321   20.4539   23.7231 H   0  0  0  0  0  0  0  0  0  0  0  0
   19.8117   20.4809   24.1488 H   0  0  0  0  0  0  0  0  0  0  0  0
   20.6954   18.4987   24.1458 C   0  0  0  0  0  0  0  0  0  0  0  0
   21.6542   18.0432   24.4273 H   0  0  0  0  0  0  0  0  0  0  0  0
   19.9341   18.0618   24.8056 H   0  0  0  0  0  0  0  0  0  0  0  0
   20.3804   18.1340   22.6755 C   0  0  0  0  0  0  0  0  0  0  0  0
   20.4529   17.0439   22.5693 H   0  0  0  0  0  0  0  0  0  0  0  0
   21.1500   18.5628   22.0188 H   0  0  0  0  0  0  0  0  0  0  0  0
   18.9776   18.6091   22.2180 C   0  0  0  0  0  0  0  0  0  0  0  0
   18.2071   18.1638   22.8624 H   0  0  0  0  0  0  0  0  0  0  0  0
   18.8975   19.6965   22.3474 H   0  0  0  0  0  0  0  0  0  0  0  0
   18.6670   18.2772   20.7381 C   0  0  0  0  0  0  0  0  0  0  0  0
   19.4284   18.7299   20.0876 H   0  0  0  0  0  0  0  0  0  0  0  0
   17.7119   18.7474   20.4652 H   0  0  0  0  0  0  0  0  0  0  0  0
   18.5730   16.7609   20.4521 C   0  0  0  0  0  0  0  0  0  0  0  0
   19.5409   16.2630   20.5886 H   0  0  0  0  0  0  0  0  0  0  0  0
   18.2560   16.5847   19.4161 H   0  0  0  0  0  0  0  0  0  0  0  0
   17.8411   16.2787   21.1130 H   0  0  0  0  0  0  0  0  0  0  0  0
   21.1853   21.9019   25.9528 C   0  0  0  0  0  0  0  0  0  0  0  0
   20.2086   22.3224   25.7035 H   0  0  0  0  0  0  0  0  0  0  0  0
   21.4427   22.1532   26.9842 H   0  0  0  0  0  0  0  0  0  0  0  0
   21.9439   22.3008   25.2757 H   0  0  0  0  0  0  0  0  0  0  0  0
  1  2  1  0  0  0  0
  1  3  1  0  0  0  0
  1  4  1  0  0  0  0
  4  5  1  0  0  0  0
  4  6  1  0  0  0  0
  4  7  1  0  0  0  0
  7  8  1  0  0  0  0
  7  9  1  0  0  0  0
  7 10  1  0  0  0  0
 10 11  1  0  0  0  0
 10 12  1  0  0  0  0
 10 13  1  0  0  0  0
 13 14  1  0  0  0  0
 13 15  1  0  0  0  0
 13 16  1  0  0  0  0
 16 17  1  0  0  0  0
 16 18  1  0  0  0  0
 16 19  1  0  0  0  0
 19 20  1  0  0  0  0
 19 21  1  0  0  0  0
 19 22  1  0  0  0  0
  1 23  1  0  0  0  0
 23 24  1  0  0  0  0
 23 25  1  0  0  0  0
 23 26  1  0  0  0  0
M  END
> <VConfSearch Rank>
844

> <Conf_Id>
137

> <Delta U+W>
1.038

> <U+W>
22.880

> <U>
71.810

> <W>
-48.930

> <W(PB)>
-51.257

> <W(SA)>
2.327

> <Valence>
2.568

> <Coulomb>
68.877

> <VdW>
0.364

> <VdW6>
-6.470

> <VdW12>
6.834

> <Bond>
0.191

> <Angle>
0.752

> <Pdih>
1.626

> <Idih>
0.000

> <Tether>
0.000

$$$$
VeraChem MOL file


 26 25  0  0  0  0  0  0  0  0999 V2000     
   21.0816   21.8345   22.8889 N   0  3  0  0  0  0  0  0  0  0  0  0
   22.0090   21.4167   22.7152 H   0  0  0  0  0  0  0  0  0  0  0  0
   21.0757   22.0831   23.8904 H   0  0  0  0  0  0  0  0  0  0  0  0
   19.9898   20.8257   22.5941 C   0  0  0  0  0  0  0  0  0  0  0  0
   20.0354   20.5837   21.5292 H   0  0  0  0  0  0  0  0  0  0  0  0
   19.0282   21.3035   22.7977 H   0  0  0  0  0  0  0  0  0  0  0  0
   20.1128   19.5349   23.4240 C   0  0  0  0  0  0  0  0  0  0  0  0
   21.0889   19.0748   23.2256 H   0  0  0  0  0  0  0  0  0  0  0  0
   20.0827   19.7846   24.4930 H   0  0  0  0  0  0  0  0  0  0  0  0
   18.9763   18.5402   23.0892 C   0  0  0  0  0  0  0  0  0  0  0  0
   19.0359   18.2520   22.0304 H   0  0  0  0  0  0  0  0  0  0  0  0
   18.0097   19.0475   23.2160 H   0  0  0  0  0  0  0  0  0  0  0  0
   18.9832   17.2692   23.9743 C   0  0  0  0  0  0  0  0  0  0  0  0
   18.9057   17.5563   25.0321 H   0  0  0  0  0  0  0  0  0  0  0  0
   18.0818   16.6830   23.7481 H   0  0  0  0  0  0  0  0  0  0  0  0
   20.2289   16.3754   23.7662 C   0  0  0  0  0  0  0  0  0  0  0  0
   21.1378   16.9158   24.0621 H   0  0  0  0  0  0  0  0  0  0  0  0
   20.3364   16.1305   22.7002 H   0  0  0  0  0  0  0  0  0  0  0  0
   20.1354   15.0692   24.5837 C   0  0  0  0  0  0  0  0  0  0  0  0
   20.0570   15.2809   25.6581 H   0  0  0  0  0  0  0  0  0  0  0  0
   21.0275   14.4490   24.4270 H   0  0  0  0  0  0  0  0  0  0  0  0
   19.2589   14.4787   24.2868 H   0  0  0  0  0  0  0  0  0  0  0  0
   20.8858   23.0758   22.0295 C   0  0  0  0  0  0  0  0  0  0  0  0
   19.9131   23.5187   22.2545 H   0  0  0  0  0  0  0  0  0  0  0  0
   21.6783   23.7940   22.2516 H   0  0  0  0  0  0  0  0  0  0  0  0
   20.9289   22.7933   20.9753 H   0  0  0  0  0  0  0  0  0  0  0  0
  1  2  1  0  0  0  0
  1  3  1  0  0  0  0
  1  4  1  0  0  0  0
  4  5  1  0  0  0  0
  4  6  1  0  0  0  0
  4  7  1  0  0  0  0
  7  8  1  0  0  0  0
  7  9  1  0  0  0  0
  7 10  1  0  0  0  0
 10 11  1  0  0  0  0
 10 12  1  0  0  0  0
 10 13  1  0  0  0  0
 13 14  1  0  0  0  0
 13 15  1  0  0  0  0
 13 16  1  0  0  0  0
 16 17  1  0  0  0  0
 16 18  1  0  0  0  0
 16 19  1  0  0  0  0
 19 20  1  0  0  0  0
 19 21  1  0  0  0  0
 19 22  1  0  0  0  0
  1 23  1  0  0  0  0
 23 24  1  0  0  0  0
 23 25  1  0  0  0  0
 23 26  1  0  0  0  0
M  END
> <VConfSearch Rank>
845

> <Conf_Id>
35

> <Delta U+W>
0.670

> <U+W>
22.512

> <U>
71.348

> <W>
-48.837

> <W(PB)>
-51.150

> <W(SA)>
2.313

> <Valence>
2.262

> <Coulomb>
68.807

> <VdW>
0.280

> <VdW6>
-5.915

> <VdW12>
6.195

> <Bond>
0.164

> <Angle>
0.622

> <Pdih>
1.475

> <Idih>
0.000

> <Tether>
0.000

$$$$
VeraChem MOL file


 26 25  0  0  0  0  0  0  0  0999 V2000     
   19.1120   21.6556   24.4163 N   0  3  0  0  0  0  0  0  0  0  0  0
   19.8809   22.2093   24.0075 H   0  0  0  0  0  0  0  0  0  0  0  0
   19.4661   21.3247   25.3273 H   0  0  0  0  0  0  0  0  0  0  0  0
   18.7842   20.4763   23.5226 C   0  0  0  0  0  0  0  0  0  0  0  0
   18.4218   20.8690   22.5692 H   0  0  0  0  0  0  0  0  0  0  0  0
   17.9742   19.9137   23.9935 H   0  0  0  0  0  0  0  0  0  0  0  0
   19.9860   19.5461   23.2765 C   0  0  0  0  0  0  0  0  0  0  0  0
   20.8029   20.1193   22.8184 H   0  0  0  0  0  0  0  0  0  0  0  0
   20.3523   19.1736   24.2413 H   0  0  0  0  0  0  0  0  0  0  0  0
   19.6020   18.3616   22.3584 C   0  0  0  0  0  0  0  0  0  0  0  0
   19.1618   18.7567   21.4322 H   0  0  0  0  0  0  0  0  0  0  0  0
   18.8185   17.7592   22.8388 H   0  0  0  0  0  0  0  0  0  0  0  0
   20.7991   17.4531   21.9842 C   0  0  0  0  0  0  0  0  0  0  0  0
   20.4585   16.7165   21.2434 H   0  0  0  0  0  0  0  0  0  0  0  0
   21.5752   18.0519   21.4878 H   0  0  0  0  0  0  0  0  0  0  0  0
   21.4109   16.7044   23.1922 C   0  0  0  0  0  0  0  0  0  0  0  0
   20.6249   16.1463   23.7200 H   0  0  0  0  0  0  0  0  0  0  0  0
   21.8298   17.4213   23.9108 H   0  0  0  0  0  0  0  0  0  0  0  0
   22.5236   15.7285   22.7532 C   0  0  0  0  0  0  0  0  0  0  0  0
   22.1335   14.9684   22.0638 H   0  0  0  0  0  0  0  0  0  0  0  0
   22.9482   15.2086   23.6217 H   0  0  0  0  0  0  0  0  0  0  0  0
   23.3394   16.2617   22.2480 H   0  0  0  0  0  0  0  0  0  0  0  0
   17.8739   22.5208   24.6071 C   0  0  0  0  0  0  0  0  0  0  0  0
   17.0860   21.9231   25.0708 H   0  0  0  0  0  0  0  0  0  0  0  0
   18.1236   23.3662   25.2523 H   0  0  0  0  0  0  0  0  0  0  0  0
   17.5375   22.8860   23.6343 H   0  0  0  0  0  0  0  0  0  0  0  0
  1  2  1  0  0  0  0
  1  3  1  0  0  0  0
  1  4  1  0  0  0  0
  4  5  1  0  0  0  0
  4  6  1  0  0  0  0
  4  7  1  0  0  0  0
  7  8  1  0  0  0  0
  7  9  1  0  0  0  0
  7 10  1  0  0  0  0
 10 11  1  0  0  0  0
 10 12  1  0  0  0  0
 10 13  1  0  0  0  0
 13 14  1  0  0  0  0
 13 15  1  0  0  0  0
 13 16  1  0  0  0  0
 16 17  1  0  0  0  0
 16 18  1  0  0  0  0
 16 19  1  0  0  0  0
 19 20  1  0  0  0  0
 19 21  1  0  0  0  0
 19 22  1  0  0  0  0
  1 23  1  0  0  0  0
 23 24  1  0  0  0  0
 23 25  1  0  0  0  0
 23 26  1  0  0  0  0
M  END
> <VConfSearch Rank>
846

> <Conf_Id>
36

> <Delta U+W>
0.662

> <U+W>
22.504

> <U>
71.348

> <W>
-48.844

> <W(PB)>
-51.157

> <W(SA)>
2.313

> <Valence>
2.262

> <Coulomb>
68.807

> <VdW>
0.280

> <VdW6>
-5.916

> <VdW12>
6.195

> <Bond>
0.164

> <Angle>
0.622

> <Pdih>
1.475

> <Idih>
0.000

> <Tether>
0.000

$$$$
VeraChem MOL file


 26 25  0  0  0  0  0  0  0  0999 V2000     
   18.3333   20.5906   25.1997 N   0  3  0  0  0  0  0  0  0  0  0  0
   17.7889   21.0952   24.4829 H   0  0  0  0  0  0  0  0  0  0  0  0
   18.7708   21.3241   25.7789 H   0  0  0  0  0  0  0  0  0  0  0  0
   19.3997   19.7378   24.5424 C   0  0  0  0  0  0  0  0  0  0  0  0
   18.8944   18.9811   23.9376 H   0  0  0  0  0  0  0  0  0  0  0  0
   19.9583   19.2308   25.3332 H   0  0  0  0  0  0  0  0  0  0  0  0
   20.3694   20.5481   23.6609 C   0  0  0  0  0  0  0  0  0  0  0  0
   19.8080   21.0589   22.8673 H   0  0  0  0  0  0  0  0  0  0  0  0
   20.8375   21.3329   24.2699 H   0  0  0  0  0  0  0  0  0  0  0  0
   21.4787   19.6724   23.0317 C   0  0  0  0  0  0  0  0  0  0  0  0
   22.0564   19.1842   23.8289 H   0  0  0  0  0  0  0  0  0  0  0  0
   22.1811   20.3255   22.4952 H   0  0  0  0  0  0  0  0  0  0  0  0
   20.9299   18.6042   22.0552 C   0  0  0  0  0  0  0  0  0  0  0  0
   20.2639   17.9135   22.5895 H   0  0  0  0  0  0  0  0  0  0  0  0
   20.3252   19.0926   21.2785 H   0  0  0  0  0  0  0  0  0  0  0  0
   22.0667   17.7971   21.3892 C   0  0  0  0  0  0  0  0  0  0  0  0
   22.6755   17.3068   22.1618 H   0  0  0  0  0  0  0  0  0  0  0  0
   22.7354   18.4777   20.8437 H   0  0  0  0  0  0  0  0  0  0  0  0
   21.5181   16.7310   20.4168 C   0  0  0  0  0  0  0  0  0  0  0  0
   20.8728   16.0136   20.9403 H   0  0  0  0  0  0  0  0  0  0  0  0
   22.3397   16.1692   19.9539 H   0  0  0  0  0  0  0  0  0  0  0  0
   20.9320   17.1944   19.6125 H   0  0  0  0  0  0  0  0  0  0  0  0
   17.4195   19.7155   26.0466 C   0  0  0  0  0  0  0  0  0  0  0  0
   18.0121   19.2182   26.8177 H   0  0  0  0  0  0  0  0  0  0  0  0
   16.6566   20.3418   26.5144 H   0  0  0  0  0  0  0  0  0  0  0  0
   16.9430   18.9693   25.4071 H   0  0  0  0  0  0  0  0  0  0  0  0
  1  2  1  0  0  0  0
  1  3  1  0  0  0  0
  1  4  1  0  0  0  0
  4  5  1  0  0  0  0
  4  6  1  0  0  0  0
  4  7  1  0  0  0  0
  7  8  1  0  0  0  0
  7  9  1  0  0  0  0
  7 10  1  0  0  0  0
 10 11  1  0  0  0  0
 10 12  1  0  0  0  0
 10 13  1  0  0  0  0
 13 14  1  0  0  0  0
 13 15  1  0  0  0  0
 13 16  1  0  0  0  0
 16 17  1  0  0  0  0
 16 18  1  0  0  0  0
 16 19  1  0  0  0  0
 19 20  1  0  0  0  0
 19 21  1  0  0  0  0
 19 22  1  0  0  0  0
  1 23  1  0  0  0  0
 23 24  1  0  0  0  0
 23 25  1  0  0  0  0
 23 26  1  0  0  0  0
M  END
> <VConfSearch Rank>
847

> <Conf_Id>
46

> <Delta U+W>
0.496

> <U+W>
22.338

> <U>
71.138

> <W>
-48.799

> <W(PB)>
-51.136

> <W(SA)>
2.337

> <Valence>
2.016

> <Coulomb>
68.932

> <VdW>
0.190

> <VdW6>
-5.902

> <VdW12>
6.092

> <Bond>
0.149

> <Angle>
0.477

> <Pdih>
1.390

> <Idih>
0.000

> <Tether>
0.000

$$$$
VeraChem MOL file


 26 25  0  0  0  0  0  0  0  0999 V2000     
   17.1431   20.1717   23.3411 N   0  3  0  0  0  0  0  0  0  0  0  0
   16.3882   19.5017   23.5557 H   0  0  0  0  0  0  0  0  0  0  0  0
   17.0649   20.3583   22.3293 H   0  0  0  0  0  0  0  0  0  0  0  0
   18.4922   19.5581   23.6570 C   0  0  0  0  0  0  0  0  0  0  0  0
   18.5301   19.3666   24.7323 H   0  0  0  0  0  0  0  0  0  0  0  0
   19.2591   20.2963   23.4110 H   0  0  0  0  0  0  0  0  0  0  0  0
   18.7613   18.2502   22.8880 C   0  0  0  0  0  0  0  0  0  0  0  0
   17.9603   17.5324   23.1095 H   0  0  0  0  0  0  0  0  0  0  0  0
   18.7216   18.4422   21.8075 H   0  0  0  0  0  0  0  0  0  0  0  0
   20.1224   17.6118   23.2528 C   0  0  0  0  0  0  0  0  0  0  0  0
   20.2059   16.6435   22.7400 H   0  0  0  0  0  0  0  0  0  0  0  0
   20.1487   17.3955   24.3300 H   0  0  0  0  0  0  0  0  0  0  0  0
   21.3323   18.4973   22.8682 C   0  0  0  0  0  0  0  0  0  0  0  0
   21.2847   18.7392   21.7974 H   0  0  0  0  0  0  0  0  0  0  0  0
   21.2881   19.4505   23.4119 H   0  0  0  0  0  0  0  0  0  0  0  0
   22.6757   17.7999   23.1781 C   0  0  0  0  0  0  0  0  0  0  0  0
   22.7349   16.8480   22.6320 H   0  0  0  0  0  0  0  0  0  0  0  0
   22.7284   17.5548   24.2482 H   0  0  0  0  0  0  0  0  0  0  0  0
   23.8815   18.6846   22.7956 C   0  0  0  0  0  0  0  0  0  0  0  0
   23.8750   18.9190   21.7232 H   0  0  0  0  0  0  0  0  0  0  0  0
   24.8255   18.1725   23.0226 H   0  0  0  0  0  0  0  0  0  0  0  0
   23.8697   19.6308   23.3523 H   0  0  0  0  0  0  0  0  0  0  0  0
   16.9593   21.4564   24.1370 C   0  0  0  0  0  0  0  0  0  0  0  0
   15.9841   21.8879   23.9005 H   0  0  0  0  0  0  0  0  0  0  0  0
   17.0129   21.2287   25.2039 H   0  0  0  0  0  0  0  0  0  0  0  0
   17.7493   22.1613   23.8688 H   0  0  0  0  0  0  0  0  0  0  0  0
  1  2  1  0  0  0  0
  1  3  1  0  0  0  0
  1  4  1  0  0  0  0
  4  5  1  0  0  0  0
  4  6  1  0  0  0  0
  4  7  1  0  0  0  0
  7  8  1  0  0  0  0
  7  9  1  0  0  0  0
  7 10  1  0  0  0  0
 10 11  1  0  0  0  0
 10 12  1  0  0  0  0
 10 13  1  0  0  0  0
 13 14  1  0  0  0  0
 13 15  1  0  0  0  0
 13 16  1  0  0  0  0
 16 17  1  0  0  0  0
 16 18  1  0  0  0  0
 16 19  1  0  0  0  0
 19 20  1  0  0  0  0
 19 21  1  0  0  0  0
 19 22  1  0  0  0  0
  1 23  1  0  0  0  0
 23 24  1  0  0  0  0
 23 25  1  0  0  0  0
 23 26  1  0  0  0  0
M  END
> <VConfSearch Rank>
848

> <Conf_Id>
45

> <Delta U+W>
0.471

> <U+W>
22.313

> <U>
71.138

> <W>
-48.825

> <W(PB)>
-51.169

> <W(SA)>
2.344

> <Valence>
2.016

> <Coulomb>
68.932

> <VdW>
0.190

> <VdW6>
-5.902

> <VdW12>
6.092

> <Bond>
0.149

> <Angle>
0.477

> <Pdih>
1.390

> <Idih>
0.000

> <Tether>
0.000

$$$$
VeraChem MOL file


 26 25  0  0  0  0  0  0  0  0999 V2000     
   21.9261   20.9148   23.1513 N   0  3  0  0  0  0  0  0  0  0  0  0
   22.2426   20.1847   23.8070 H   0  0  0  0  0  0  0  0  0  0  0  0
   21.2816   21.5120   23.6922 H   0  0  0  0  0  0  0  0  0  0  0  0
   21.1950   20.2831   21.9824 C   0  0  0  0  0  0  0  0  0  0  0  0
   21.9053   19.6530   21.4411 H   0  0  0  0  0  0  0  0  0  0  0  0
   20.8781   21.0898   21.3165 H   0  0  0  0  0  0  0  0  0  0  0  0
   19.9672   19.4463   22.3924 C   0  0  0  0  0  0  0  0  0  0  0  0
   19.2602   20.0881   22.9330 H   0  0  0  0  0  0  0  0  0  0  0  0
   19.4551   19.1119   21.4804 H   0  0  0  0  0  0  0  0  0  0  0  0
   20.3470   18.2130   23.2498 C   0  0  0  0  0  0  0  0  0  0  0  0
   20.7790   18.5364   24.2063 H   0  0  0  0  0  0  0  0  0  0  0  0
   21.1328   17.6463   22.7310 H   0  0  0  0  0  0  0  0  0  0  0  0
   19.1560   17.2618   23.5236 C   0  0  0  0  0  0  0  0  0  0  0  0
   18.7342   16.9152   22.5701 H   0  0  0  0  0  0  0  0  0  0  0  0
   19.5357   16.3665   24.0352 H   0  0  0  0  0  0  0  0  0  0  0  0
   18.0409   17.8990   24.3865 C   0  0  0  0  0  0  0  0  0  0  0  0
   17.5940   18.7524   23.8594 H   0  0  0  0  0  0  0  0  0  0  0  0
   18.4708   18.2902   25.3192 H   0  0  0  0  0  0  0  0  0  0  0  0
   16.9300   16.8815   24.7232 C   0  0  0  0  0  0  0  0  0  0  0  0
   16.4596   16.4941   23.8100 H   0  0  0  0  0  0  0  0  0  0  0  0
   16.1465   17.3503   25.3327 H   0  0  0  0  0  0  0  0  0  0  0  0
   17.3315   16.0302   25.2884 H   0  0  0  0  0  0  0  0  0  0  0  0
   23.1099   21.7269   22.6447 C   0  0  0  0  0  0  0  0  0  0  0  0
   22.7474   22.5123   21.9779 H   0  0  0  0  0  0  0  0  0  0  0  0
   23.6272   22.1753   23.4958 H   0  0  0  0  0  0  0  0  0  0  0  0
   23.7923   21.0678   22.1036 H   0  0  0  0  0  0  0  0  0  0  0  0
  1  2  1  0  0  0  0
  1  3  1  0  0  0  0
  1  4  1  0  0  0  0
  4  5  1  0  0  0  0
  4  6  1  0  0  0  0
  4  7  1  0  0  0  0
  7  8  1  0  0  0  0
  7  9  1  0  0  0  0
  7 10  1  0  0  0  0
 10 11  1  0  0  0  0
 10 12  1  0  0  0  0
 10 13  1  0  0  0  0
 13 14  1  0  0  0  0
 13 15  1  0  0  0  0
 13 16  1  0  0  0  0
 16 17  1  0  0  0  0
 16 18  1  0  0  0  0
 16 19  1  0  0  0  0
 19 20  1  0  0  0  0
 19 21  1  0  0  0  0
 19 22  1  0  0  0  0
  1 23  1  0  0  0  0
 23 24  1  0  0  0  0
 23 25  1  0  0  0  0
 23 26  1  0  0  0  0
M  END
> <VConfSearch Rank>
849

> <Conf_Id>
143

> <Delta U+W>
0.915

> <U+W>
22.757

> <U>
71.994

> <W>
-49.237

> <W(PB)>
-51.537

> <W(SA)>
2.300

> <Valence>
2.376

> <Coulomb>
69.315

> <VdW>
0.303

> <VdW6>
-6.508

> <VdW12>
6.810

> <Bond>
0.182

> <Angle>
0.660

> <Pdih>
1.534

> <Idih>
0.000

> <Tether>
0.000

$$$$
VeraChem MOL file


 26 25  0  0  0  0  0  0  0  0999 V2000     
   22.2658   19.7976   24.4080 N   0  3  0  0  0  0  0  0  0  0  0  0
   22.3018   20.3391   23.5314 H   0  0  0  0  0  0  0  0  0  0  0  0
   22.7264   18.8988   24.1967 H   0  0  0  0  0  0  0  0  0  0  0  0
   20.8245   19.5618   24.8171 C   0  0  0  0  0  0  0  0  0  0  0  0
   20.3679   20.5332   25.0226 H   0  0  0  0  0  0  0  0  0  0  0  0
   20.8375   18.9876   25.7471 H   0  0  0  0  0  0  0  0  0  0  0  0
   19.9883   18.8074   23.7644 C   0  0  0  0  0  0  0  0  0  0  0  0
   20.4651   17.8447   23.5373 H   0  0  0  0  0  0  0  0  0  0  0  0
   19.0118   18.5836   24.2109 H   0  0  0  0  0  0  0  0  0  0  0  0
   19.7849   19.6234   22.4645 C   0  0  0  0  0  0  0  0  0  0  0  0
   20.7611   19.9386   22.0734 H   0  0  0  0  0  0  0  0  0  0  0  0
   19.2367   20.5470   22.6970 H   0  0  0  0  0  0  0  0  0  0  0  0
   19.0456   18.8566   21.3372 C   0  0  0  0  0  0  0  0  0  0  0  0
   19.0021   19.5190   20.4614 H   0  0  0  0  0  0  0  0  0  0  0  0
   19.6383   17.9875   21.0200 H   0  0  0  0  0  0  0  0  0  0  0  0
   17.5982   18.4211   21.6838 C   0  0  0  0  0  0  0  0  0  0  0  0
   16.9818   18.5027   20.7776 H   0  0  0  0  0  0  0  0  0  0  0  0
   17.1546   19.1134   22.4130 H   0  0  0  0  0  0  0  0  0  0  0  0
   17.5009   16.9647   22.1957 C   0  0  0  0  0  0  0  0  0  0  0  0
   18.0769   16.8099   23.1146 H   0  0  0  0  0  0  0  0  0  0  0  0
   17.8730   16.2590   21.4417 H   0  0  0  0  0  0  0  0  0  0  0  0
   16.4568   16.7020   22.4098 H   0  0  0  0  0  0  0  0  0  0  0  0
   23.0065   20.5301   25.5181 C   0  0  0  0  0  0  0  0  0  0  0  0
   22.9827   19.9239   26.4263 H   0  0  0  0  0  0  0  0  0  0  0  0
   24.0418   20.6936   25.2108 H   0  0  0  0  0  0  0  0  0  0  0  0
   22.5200   21.4907   25.7014 H   0  0  0  0  0  0  0  0  0  0  0  0
  1  2  1  0  0  0  0
  1  3  1  0  0  0  0
  1  4  1  0  0  0  0
  4  5  1  0  0  0  0
  4  6  1  0  0  0  0
  4  7  1  0  0  0  0
  7  8  1  0  0  0  0
  7  9  1  0  0  0  0
  7 10  1  0  0  0  0
 10 11  1  0  0  0  0
 10 12  1  0  0  0  0
 10 13  1  0  0  0  0
 13 14  1  0  0  0  0
 13 15  1  0  0  0  0
 13 16  1  0  0  0  0
 16 17  1  0  0  0  0
 16 18  1  0  0  0  0
 16 19  1  0  0  0  0
 19 20  1  0  0  0  0
 19 21  1  0  0  0  0
 19 22  1  0  0  0  0
  1 23  1  0  0  0  0
 23 24  1  0  0  0  0
 23 25  1  0  0  0  0
 23 26  1  0  0  0  0
M  END
> <VConfSearch Rank>
850

> <Conf_Id>
76

> <Delta U+W>
3.468

> <U+W>
25.310

> <U>
74.594

> <W>
-49.283

> <W(PB)>
-51.537

> <W(SA)>
2.253

> <Valence>
4.886

> <Coulomb>
69.332

> <VdW>
0.376

> <VdW6>
-7.329

> <VdW12>
7.705

> <Bond>
0.232

> <Angle>
1.251

> <Pdih>
3.403

> <Idih>
0.000

> <Tether>
0.000

$$$$
VeraChem MOL file


 26 25  0  0  0  0  0  0  0  0999 V2000     
   18.7781   21.2056   22.2147 N   0  3  0  0  0  0  0  0  0  0  0  0
   17.9699   20.5644   22.1946 H   0  0  0  0  0  0  0  0  0  0  0  0
   19.1518   21.2070   21.2529 H   0  0  0  0  0  0  0  0  0  0  0  0
   19.8270   20.6954   23.1824 C   0  0  0  0  0  0  0  0  0  0  0  0
   19.3906   20.7027   24.1844 H   0  0  0  0  0  0  0  0  0  0  0  0
   20.6660   21.3956   23.1672 H   0  0  0  0  0  0  0  0  0  0  0  0
   20.3281   19.2791   22.8465 C   0  0  0  0  0  0  0  0  0  0  0  0
   19.4774   18.5886   22.8388 H   0  0  0  0  0  0  0  0  0  0  0  0
   20.7498   19.2749   21.8326 H   0  0  0  0  0  0  0  0  0  0  0  0
   21.4035   18.8085   23.8553 C   0  0  0  0  0  0  0  0  0  0  0  0
   21.0157   18.8627   24.8820 H   0  0  0  0  0  0  0  0  0  0  0  0
   22.2443   19.5147   23.8114 H   0  0  0  0  0  0  0  0  0  0  0  0
   21.9438   17.3837   23.5647 C   0  0  0  0  0  0  0  0  0  0  0  0
   21.9023   17.1718   22.4874 H   0  0  0  0  0  0  0  0  0  0  0  0
   23.0102   17.3621   23.8288 H   0  0  0  0  0  0  0  0  0  0  0  0
   21.2452   16.2497   24.3581 C   0  0  0  0  0  0  0  0  0  0  0  0
   21.3830   16.4149   25.4358 H   0  0  0  0  0  0  0  0  0  0  0  0
   21.7520   15.3017   24.1293 H   0  0  0  0  0  0  0  0  0  0  0  0
   19.7395   16.0916   24.0528 C   0  0  0  0  0  0  0  0  0  0  0  0
   19.5616   15.9913   22.9743 H   0  0  0  0  0  0  0  0  0  0  0  0
   19.1650   16.9487   24.4249 H   0  0  0  0  0  0  0  0  0  0  0  0
   19.3413   15.1939   24.5433 H   0  0  0  0  0  0  0  0  0  0  0  0
   18.3385   22.6061   22.6187 C   0  0  0  0  0  0  0  0  0  0  0  0
   17.9168   22.5738   23.6257 H   0  0  0  0  0  0  0  0  0  0  0  0
   19.2031   23.2732   22.6007 H   0  0  0  0  0  0  0  0  0  0  0  0
   17.5835   22.9618   21.9139 H   0  0  0  0  0  0  0  0  0  0  0  0
  1  2  1  0  0  0  0
  1  3  1  0  0  0  0
  1  4  1  0  0  0  0
  4  5  1  0  0  0  0
  4  6  1  0  0  0  0
  4  7  1  0  0  0  0
  7  8  1  0  0  0  0
  7  9  1  0  0  0  0
  7 10  1  0  0  0  0
 10 11  1  0  0  0  0
 10 12  1  0  0  0  0
 10 13  1  0  0  0  0
 13 14  1  0  0  0  0
 13 15  1  0  0  0  0
 13 16  1  0  0  0  0
 16 17  1  0  0  0  0
 16 18  1  0  0  0  0
 16 19  1  0  0  0  0
 19 20  1  0  0  0  0
 19 21  1  0  0  0  0
 19 22  1  0  0  0  0
  1 23  1  0  0  0  0
 23 24  1  0  0  0  0
 23 25  1  0  0  0  0
 23 26  1  0  0  0  0
M  END
> <VConfSearch Rank>
851

> <Conf_Id>
123

> <Delta U+W>
3.101

> <U+W>
24.943

> <U>
74.070

> <W>
-49.127

> <W(PB)>
-51.421

> <W(SA)>
2.295

> <Valence>
4.690

> <Coulomb>
69.115

> <VdW>
0.266

> <VdW6>
-6.809

> <VdW12>
7.075

> <Bond>
0.212

> <Angle>
1.133

> <Pdih>
3.345

> <Idih>
0.000

> <Tether>
0.000

$$$$
VeraChem MOL file


 26 25  0  0  0  0  0  0  0  0999 V2000     
   22.3467   20.2954   23.9878 N   0  3  0  0  0  0  0  0  0  0  0  0
   22.0342   21.2383   24.2672 H   0  0  0  0  0  0  0  0  0  0  0  0
   22.3559   20.3015   22.9567 H   0  0  0  0  0  0  0  0  0  0  0  0
   21.3705   19.2510   24.4937 C   0  0  0  0  0  0  0  0  0  0  0  0
   21.3945   19.2797   25.5861 H   0  0  0  0  0  0  0  0  0  0  0  0
   21.7283   18.2702   24.1704 H   0  0  0  0  0  0  0  0  0  0  0  0
   19.9222   19.4598   24.0092 C   0  0  0  0  0  0  0  0  0  0  0  0
   19.2834   18.7268   24.5146 H   0  0  0  0  0  0  0  0  0  0  0  0
   19.5691   20.4485   24.3312 H   0  0  0  0  0  0  0  0  0  0  0  0
   19.7814   19.3248   22.4714 C   0  0  0  0  0  0  0  0  0  0  0  0
   20.2209   18.3778   22.1286 H   0  0  0  0  0  0  0  0  0  0  0  0
   20.3675   20.1223   21.9954 H   0  0  0  0  0  0  0  0  0  0  0  0
   18.3163   19.4407   21.9752 C   0  0  0  0  0  0  0  0  0  0  0  0
   17.7336   20.0814   22.6514 H   0  0  0  0  0  0  0  0  0  0  0  0
   18.3226   19.9615   21.0076 H   0  0  0  0  0  0  0  0  0  0  0  0
   17.5924   18.0853   21.7692 C   0  0  0  0  0  0  0  0  0  0  0  0
   18.1273   17.4932   21.0136 H   0  0  0  0  0  0  0  0  0  0  0  0
   16.5958   18.2827   21.3502 H   0  0  0  0  0  0  0  0  0  0  0  0
   17.4308   17.2469   23.0563 C   0  0  0  0  0  0  0  0  0  0  0  0
   16.9503   17.8307   23.8520 H   0  0  0  0  0  0  0  0  0  0  0  0
   18.4001   16.8869   23.4222 H   0  0  0  0  0  0  0  0  0  0  0  0
   16.8060   16.3653   22.8634 H   0  0  0  0  0  0  0  0  0  0  0  0
   23.7394   20.0102   24.5322 C   0  0  0  0  0  0  0  0  0  0  0  0
   24.0605   19.0215   24.1972 H   0  0  0  0  0  0  0  0  0  0  0  0
   24.4318   20.7687   24.1602 H   0  0  0  0  0  0  0  0  0  0  0  0
   23.7113   20.0401   25.6237 H   0  0  0  0  0  0  0  0  0  0  0  0
  1  2  1  0  0  0  0
  1  3  1  0  0  0  0
  1  4  1  0  0  0  0
  4  5  1  0  0  0  0
  4  6  1  0  0  0  0
  4  7  1  0  0  0  0
  7  8  1  0  0  0  0
  7  9  1  0  0  0  0
  7 10  1  0  0  0  0
 10 11  1  0  0  0  0
 10 12  1  0  0  0  0
 10 13  1  0  0  0  0
 13 14  1  0  0  0  0
 13 15  1  0  0  0  0
 13 16  1  0  0  0  0
 16 17  1  0  0  0  0
 16 18  1  0  0  0  0
 16 19  1  0  0  0  0
 19 20  1  0  0  0  0
 19 21  1  0  0  0  0
 19 22  1  0  0  0  0
  1 23  1  0  0  0  0
 23 24  1  0  0  0  0
 23 25  1  0  0  0  0
 23 26  1  0  0  0  0
M  END
> <VConfSearch Rank>
852

> <Conf_Id>
111

> <Delta U+W>
3.383

> <U+W>
25.225

> <U>
74.516

> <W>
-49.292

> <W(PB)>
-51.558

> <W(SA)>
2.266

> <Valence>
4.842

> <Coulomb>
69.333

> <VdW>
0.342

> <VdW6>
-7.369

> <VdW12>
7.711

> <Bond>
0.232

> <Angle>
1.153

> <Pdih>
3.457

> <Idih>
0.000

> <Tether>
0.000

$$$$
VeraChem MOL file


 26 25  0  0  0  0  0  0  0  0999 V2000     
   18.2245   20.6335   22.8367 N   0  3  0  0  0  0  0  0  0  0  0  0
   18.5001   21.5364   22.4204 H   0  0  0  0  0  0  0  0  0  0  0  0
   18.7228   20.5802   23.7378 H   0  0  0  0  0  0  0  0  0  0  0  0
   18.6568   19.4914   21.9381 C   0  0  0  0  0  0  0  0  0  0  0  0
   18.1164   19.5909   20.9932 H   0  0  0  0  0  0  0  0  0  0  0  0
   18.3457   18.5561   22.4090 H   0  0  0  0  0  0  0  0  0  0  0  0
   20.1737   19.4565   21.6588 C   0  0  0  0  0  0  0  0  0  0  0  0
   20.3848   18.6306   20.9665 H   0  0  0  0  0  0  0  0  0  0  0  0
   20.4625   20.3764   21.1334 H   0  0  0  0  0  0  0  0  0  0  0  0
   21.0496   19.2955   22.9273 C   0  0  0  0  0  0  0  0  0  0  0  0
   20.9128   20.1609   23.5893 H   0  0  0  0  0  0  0  0  0  0  0  0
   22.1025   19.3125   22.6172 H   0  0  0  0  0  0  0  0  0  0  0  0
   20.7601   17.9876   23.7073 C   0  0  0  0  0  0  0  0  0  0  0  0
   19.7017   17.9583   23.9977 H   0  0  0  0  0  0  0  0  0  0  0  0
   20.9245   17.1214   23.0517 H   0  0  0  0  0  0  0  0  0  0  0  0
   21.6136   17.8332   24.9897 C   0  0  0  0  0  0  0  0  0  0  0  0
   21.2664   16.9465   25.5384 H   0  0  0  0  0  0  0  0  0  0  0  0
   21.4443   18.6912   25.6552 H   0  0  0  0  0  0  0  0  0  0  0  0
   23.1264   17.6823   24.7100 C   0  0  0  0  0  0  0  0  0  0  0  0
   23.5504   18.5959   24.2756 H   0  0  0  0  0  0  0  0  0  0  0  0
   23.3197   16.8508   24.0199 H   0  0  0  0  0  0  0  0  0  0  0  0
   23.6704   17.4781   25.6413 H   0  0  0  0  0  0  0  0  0  0  0  0
   16.7188   20.5811   23.0545 C   0  0  0  0  0  0  0  0  0  0  0  0
   16.4217   21.4078   23.7036 H   0  0  0  0  0  0  0  0  0  0  0  0
   16.2135   20.6694   22.0902 H   0  0  0  0  0  0  0  0  0  0  0  0
   16.4567   19.6305   23.5241 H   0  0  0  0  0  0  0  0  0  0  0  0
  1  2  1  0  0  0  0
  1  3  1  0  0  0  0
  1  4  1  0  0  0  0
  4  5  1  0  0  0  0
  4  6  1  0  0  0  0
  4  7  1  0  0  0  0
  7  8  1  0  0  0  0
  7  9  1  0  0  0  0
  7 10  1  0  0  0  0
 10 11  1  0  0  0  0
 10 12  1  0  0  0  0
 10 13  1  0  0  0  0
 13 14  1  0  0  0  0
 13 15  1  0  0  0  0
 13 16  1  0  0  0  0
 16 17  1  0  0  0  0
 16 18  1  0  0  0  0
 16 19  1  0  0  0  0
 19 20  1  0  0  0  0
 19 21  1  0  0  0  0
 19 22  1  0  0  0  0
  1 23  1  0  0  0  0
 23 24  1  0  0  0  0
 23 25  1  0  0  0  0
 23 26  1  0  0  0  0
M  END
> <VConfSearch Rank>
853

> <Conf_Id>
126

> <Delta U+W>
1.519

> <U+W>
23.361

> <U>
72.579

> <W>
-49.218

> <W(PB)>
-51.496

> <W(SA)>
2.279

> <Valence>
2.678

> <Coulomb>
69.622

> <VdW>
0.279

> <VdW6>
-7.328

> <VdW12>
7.608

> <Bond>
0.212

> <Angle>
0.911

> <Pdih>
1.555

> <Idih>
0.000

> <Tether>
0.000

$$$$
VeraChem MOL file


 26 25  0  0  0  0  0  0  0  0999 V2000     
   19.3846   20.4725   21.4137 N   0  3  0  0  0  0  0  0  0  0  0  0
   20.3165   20.5238   21.8519 H   0  0  0  0  0  0  0  0  0  0  0  0
   18.9130   21.3563   21.6609 H   0  0  0  0  0  0  0  0  0  0  0  0
   18.6127   19.2948   21.9757 C   0  0  0  0  0  0  0  0  0  0  0  0
   19.1391   18.3807   21.6915 H   0  0  0  0  0  0  0  0  0  0  0  0
   17.6308   19.2832   21.4958 H   0  0  0  0  0  0  0  0  0  0  0  0
   18.4332   19.3396   23.5075 C   0  0  0  0  0  0  0  0  0  0  0  0
   17.8524   20.2326   23.7741 H   0  0  0  0  0  0  0  0  0  0  0  0
   17.8264   18.4778   23.8156 H   0  0  0  0  0  0  0  0  0  0  0  0
   19.7632   19.3381   24.3032 C   0  0  0  0  0  0  0  0  0  0  0  0
   19.5195   19.4012   25.3717 H   0  0  0  0  0  0  0  0  0  0  0  0
   20.3412   20.2417   24.0685 H   0  0  0  0  0  0  0  0  0  0  0  0
   20.6292   18.0791   24.0426 C   0  0  0  0  0  0  0  0  0  0  0  0
   20.0593   17.1770   24.3047 H   0  0  0  0  0  0  0  0  0  0  0  0
   20.8538   18.0017   22.9707 H   0  0  0  0  0  0  0  0  0  0  0  0
   21.9712   18.0838   24.8145 C   0  0  0  0  0  0  0  0  0  0  0  0
   22.5514   18.9781   24.5473 H   0  0  0  0  0  0  0  0  0  0  0  0
   22.5685   17.2216   24.4864 H   0  0  0  0  0  0  0  0  0  0  0  0
   21.8008   18.0137   26.3494 C   0  0  0  0  0  0  0  0  0  0  0  0
   21.1956   17.1454   26.6406 H   0  0  0  0  0  0  0  0  0  0  0  0
   21.3198   18.9169   26.7445 H   0  0  0  0  0  0  0  0  0  0  0  0
   22.7782   17.9205   26.8401 H   0  0  0  0  0  0  0  0  0  0  0  0
   19.5109   20.3368   19.9029 C   0  0  0  0  0  0  0  0  0  0  0  0
   20.0404   19.4107   19.6684 H   0  0  0  0  0  0  0  0  0  0  0  0
   18.5129   20.3148   19.4598 H   0  0  0  0  0  0  0  0  0  0  0  0
   20.0693   21.1903   19.5119 H   0  0  0  0  0  0  0  0  0  0  0  0
  1  2  1  0  0  0  0
  1  3  1  0  0  0  0
  1  4  1  0  0  0  0
  4  5  1  0  0  0  0
  4  6  1  0  0  0  0
  4  7  1  0  0  0  0
  7  8  1  0  0  0  0
  7  9  1  0  0  0  0
  7 10  1  0  0  0  0
 10 11  1  0  0  0  0
 10 12  1  0  0  0  0
 10 13  1  0  0  0  0
 13 14  1  0  0  0  0
 13 15  1  0  0  0  0
 13 16  1  0  0  0  0
 16 17  1  0  0  0  0
 16 18  1  0  0  0  0
 16 19  1  0  0  0  0
 19 20  1  0  0  0  0
 19 21  1  0  0  0  0
 19 22  1  0  0  0  0
  1 23  1  0  0  0  0
 23 24  1  0  0  0  0
 23 25  1  0  0  0  0
 23 26  1  0  0  0  0
M  END
> <VConfSearch Rank>
854

> <Conf_Id>
134

> <Delta U+W>
1.464

> <U+W>
23.306

> <U>
72.579

> <W>
-49.273

> <W(PB)>
-51.540

> <W(SA)>
2.267

> <Valence>
2.677

> <Coulomb>
69.622

> <VdW>
0.280

> <VdW6>
-7.328

> <VdW12>
7.608

> <Bond>
0.212

> <Angle>
0.911

> <Pdih>
1.555

> <Idih>
0.000

> <Tether>
0.000

$$$$
VeraChem MOL file


 26 25  0  0  0  0  0  0  0  0999 V2000     
   21.2508   21.4818   22.4365 N   0  3  0  0  0  0  0  0  0  0  0  0
   20.5637   21.4266   21.6687 H   0  0  0  0  0  0  0  0  0  0  0  0
   22.1394   21.1442   22.0348 H   0  0  0  0  0  0  0  0  0  0  0  0
   20.8243   20.5900   23.5853 C   0  0  0  0  0  0  0  0  0  0  0  0
   19.8792   20.9755   23.9760 H   0  0  0  0  0  0  0  0  0  0  0  0
   21.5801   20.6708   24.3707 H   0  0  0  0  0  0  0  0  0  0  0  0
   20.6539   19.1147   23.1802 C   0  0  0  0  0  0  0  0  0  0  0  0
   19.9068   19.0481   22.3792 H   0  0  0  0  0  0  0  0  0  0  0  0
   21.6009   18.7358   22.7736 H   0  0  0  0  0  0  0  0  0  0  0  0
   20.2198   18.2466   24.3845 C   0  0  0  0  0  0  0  0  0  0  0  0
   19.2532   18.6000   24.7680 H   0  0  0  0  0  0  0  0  0  0  0  0
   20.9386   18.3882   25.2036 H   0  0  0  0  0  0  0  0  0  0  0  0
   20.1399   16.7319   24.0616 C   0  0  0  0  0  0  0  0  0  0  0  0
   21.1413   16.3715   23.7884 H   0  0  0  0  0  0  0  0  0  0  0  0
   19.8661   16.1905   24.9777 H   0  0  0  0  0  0  0  0  0  0  0  0
   19.1462   16.3456   22.9361 C   0  0  0  0  0  0  0  0  0  0  0  0
   19.1794   15.2556   22.7999 H   0  0  0  0  0  0  0  0  0  0  0  0
   19.4696   16.7765   21.9791 H   0  0  0  0  0  0  0  0  0  0  0  0
   17.6884   16.7655   23.2316 C   0  0  0  0  0  0  0  0  0  0  0  0
   17.3486   16.3614   24.1940 H   0  0  0  0  0  0  0  0  0  0  0  0
   17.0140   16.3880   22.4521 H   0  0  0  0  0  0  0  0  0  0  0  0
   17.5818   17.8570   23.2596 H   0  0  0  0  0  0  0  0  0  0  0  0
   21.3955   22.9177   22.9214 C   0  0  0  0  0  0  0  0  0  0  0  0
   22.1506   22.9562   23.7096 H   0  0  0  0  0  0  0  0  0  0  0  0
   21.7030   23.5490   22.0848 H   0  0  0  0  0  0  0  0  0  0  0  0
   20.4356   23.2636   23.3112 H   0  0  0  0  0  0  0  0  0  0  0  0
  1  2  1  0  0  0  0
  1  3  1  0  0  0  0
  1  4  1  0  0  0  0
  4  5  1  0  0  0  0
  4  6  1  0  0  0  0
  4  7  1  0  0  0  0
  7  8  1  0  0  0  0
  7  9  1  0  0  0  0
  7 10  1  0  0  0  0
 10 11  1  0  0  0  0
 10 12  1  0  0  0  0
 10 13  1  0  0  0  0
 13 14  1  0  0  0  0
 13 15  1  0  0  0  0
 13 16  1  0  0  0  0
 16 17  1  0  0  0  0
 16 18  1  0  0  0  0
 16 19  1  0  0  0  0
 19 20  1  0  0  0  0
 19 21  1  0  0  0  0
 19 22  1  0  0  0  0
  1 23  1  0  0  0  0
 23 24  1  0  0  0  0
 23 25  1  0  0  0  0
 23 26  1  0  0  0  0
M  END
> <VConfSearch Rank>
855

> <Conf_Id>
30

> <Delta U+W>
0.910

> <U+W>
22.752

> <U>
71.870

> <W>
-49.118

> <W(PB)>
-51.409

> <W(SA)>
2.290

> <Valence>
2.682

> <Coulomb>
68.933

> <VdW>
0.255

> <VdW6>
-6.833

> <VdW12>
7.088

> <Bond>
0.205

> <Angle>
1.003

> <Pdih>
1.473

> <Idih>
0.000

> <Tether>
0.000

$$$$
VeraChem MOL file


 26 25  0  0  0  0  0  0  0  0999 V2000     
   22.3166   19.1048   24.8613 N   0  3  0  0  0  0  0  0  0  0  0  0
   22.5041   20.1182   24.9129 H   0  0  0  0  0  0  0  0  0  0  0  0
   22.7899   18.7813   24.0033 H   0  0  0  0  0  0  0  0  0  0  0  0
   20.8254   18.8534   24.7627 C   0  0  0  0  0  0  0  0  0  0  0  0
   20.3627   19.2166   25.6838 H   0  0  0  0  0  0  0  0  0  0  0  0
   20.6706   17.7732   24.7022 H   0  0  0  0  0  0  0  0  0  0  0  0
   20.1712   19.5388   23.5494 C   0  0  0  0  0  0  0  0  0  0  0  0
   20.3424   20.6220   23.6055 H   0  0  0  0  0  0  0  0  0  0  0  0
   20.6558   19.1805   22.6323 H   0  0  0  0  0  0  0  0  0  0  0  0
   18.6520   19.2540   23.4931 C   0  0  0  0  0  0  0  0  0  0  0  0
   18.1985   19.5476   24.4501 H   0  0  0  0  0  0  0  0  0  0  0  0
   18.4798   18.1736   23.3976 H   0  0  0  0  0  0  0  0  0  0  0  0
   17.9200   20.0099   22.3539 C   0  0  0  0  0  0  0  0  0  0  0  0
   16.8467   19.7827   22.4133 H   0  0  0  0  0  0  0  0  0  0  0  0
   18.0076   21.0912   22.5286 H   0  0  0  0  0  0  0  0  0  0  0  0
   18.4198   19.6939   20.9208 C   0  0  0  0  0  0  0  0  0  0  0  0
   19.4591   20.0271   20.7986 H   0  0  0  0  0  0  0  0  0  0  0  0
   17.8299   20.2855   20.2068 H   0  0  0  0  0  0  0  0  0  0  0  0
   18.3032   18.1994   20.5440 C   0  0  0  0  0  0  0  0  0  0  0  0
   18.9682   17.5771   21.1556 H   0  0  0  0  0  0  0  0  0  0  0  0
   18.5805   18.0450   19.4933 H   0  0  0  0  0  0  0  0  0  0  0  0
   17.2751   17.8381   20.6765 H   0  0  0  0  0  0  0  0  0  0  0  0
   22.8820   18.3942   26.0832 C   0  0  0  0  0  0  0  0  0  0  0  0
   23.9562   18.5834   26.1425 H   0  0  0  0  0  0  0  0  0  0  0  0
   22.3901   18.7763   26.9805 H   0  0  0  0  0  0  0  0  0  0  0  0
   22.7011   17.3211   25.9904 H   0  0  0  0  0  0  0  0  0  0  0  0
  1  2  1  0  0  0  0
  1  3  1  0  0  0  0
  1  4  1  0  0  0  0
  4  5  1  0  0  0  0
  4  6  1  0  0  0  0
  4  7  1  0  0  0  0
  7  8  1  0  0  0  0
  7  9  1  0  0  0  0
  7 10  1  0  0  0  0
 10 11  1  0  0  0  0
 10 12  1  0  0  0  0
 10 13  1  0  0  0  0
 13 14  1  0  0  0  0
 13 15  1  0  0  0  0
 13 16  1  0  0  0  0
 16 17  1  0  0  0  0
 16 18  1  0  0  0  0
 16 19  1  0  0  0  0
 19 20  1  0  0  0  0
 19 21  1  0  0  0  0
 19 22  1  0  0  0  0
  1 23  1  0  0  0  0
 23 24  1  0  0  0  0
 23 25  1  0  0  0  0
 23 26  1  0  0  0  0
M  END
> <VConfSearch Rank>
856

> <Conf_Id>
29

> <Delta U+W>
0.886

> <U+W>
22.729

> <U>
71.870

> <W>
-49.141

> <W(PB)>
-51.404

> <W(SA)>
2.262

> <Valence>
2.682

> <Coulomb>
68.933

> <VdW>
0.255

> <VdW6>
-6.833

> <VdW12>
7.088

> <Bond>
0.205

> <Angle>
1.003

> <Pdih>
1.473

> <Idih>
0.000

> <Tether>
0.000

$$$$
VeraChem MOL file


 26 25  0  0  0  0  0  0  0  0999 V2000     
   19.9283   19.8770   25.8106 N   0  3  0  0  0  0  0  0  0  0  0  0
   19.6706   19.1614   26.5079 H   0  0  0  0  0  0  0  0  0  0  0  0
   19.0438   20.3431   25.5557 H   0  0  0  0  0  0  0  0  0  0  0  0
   20.5444   19.2209   24.5916 C   0  0  0  0  0  0  0  0  0  0  0  0
   21.4688   18.7296   24.9056 H   0  0  0  0  0  0  0  0  0  0  0  0
   20.7981   20.0107   23.8804 H   0  0  0  0  0  0  0  0  0  0  0  0
   19.6151   18.1939   23.9170 C   0  0  0  0  0  0  0  0  0  0  0  0
   19.3376   17.4245   24.6496 H   0  0  0  0  0  0  0  0  0  0  0  0
   18.6804   18.6831   23.6148 H   0  0  0  0  0  0  0  0  0  0  0  0
   20.2724   17.5066   22.6944 C   0  0  0  0  0  0  0  0  0  0  0  0
   19.5693   16.7762   22.2722 H   0  0  0  0  0  0  0  0  0  0  0  0
   21.1359   16.9207   23.0386 H   0  0  0  0  0  0  0  0  0  0  0  0
   20.7459   18.4766   21.5782 C   0  0  0  0  0  0  0  0  0  0  0  0
   21.5700   19.0955   21.9579 H   0  0  0  0  0  0  0  0  0  0  0  0
   21.1760   17.8845   20.7587 H   0  0  0  0  0  0  0  0  0  0  0  0
   19.6468   19.4046   21.0009 C   0  0  0  0  0  0  0  0  0  0  0  0
   20.0997   20.0485   20.2340 H   0  0  0  0  0  0  0  0  0  0  0  0
   19.2742   20.0828   21.7802 H   0  0  0  0  0  0  0  0  0  0  0  0
   18.4644   18.6354   20.3693 C   0  0  0  0  0  0  0  0  0  0  0  0
   17.7579   19.3328   19.9011 H   0  0  0  0  0  0  0  0  0  0  0  0
   17.9109   18.0597   21.1214 H   0  0  0  0  0  0  0  0  0  0  0  0
   18.8143   17.9414   19.5942 H   0  0  0  0  0  0  0  0  0  0  0  0
   20.9063   20.8784   26.4093 C   0  0  0  0  0  0  0  0  0  0  0  0
   20.4507   21.3434   27.2864 H   0  0  0  0  0  0  0  0  0  0  0  0
   21.8204   20.3569   26.7014 H   0  0  0  0  0  0  0  0  0  0  0  0
   21.1381   21.6432   25.6648 H   0  0  0  0  0  0  0  0  0  0  0  0
  1  2  1  0  0  0  0
  1  3  1  0  0  0  0
  1  4  1  0  0  0  0
  4  5  1  0  0  0  0
  4  6  1  0  0  0  0
  4  7  1  0  0  0  0
  7  8  1  0  0  0  0
  7  9  1  0  0  0  0
  7 10  1  0  0  0  0
 10 11  1  0  0  0  0
 10 12  1  0  0  0  0
 10 13  1  0  0  0  0
 13 14  1  0  0  0  0
 13 15  1  0  0  0  0
 13 16  1  0  0  0  0
 16 17  1  0  0  0  0
 16 18  1  0  0  0  0
 16 19  1  0  0  0  0
 19 20  1  0  0  0  0
 19 21  1  0  0  0  0
 19 22  1  0  0  0  0
  1 23  1  0  0  0  0
 23 24  1  0  0  0  0
 23 25  1  0  0  0  0
 23 26  1  0  0  0  0
M  END
> <VConfSearch Rank>
857

> <Conf_Id>
82

> <Delta U+W>
1.026

> <U+W>
22.868

> <U>
72.455

> <W>
-49.586

> <W(PB)>
-51.821

> <W(SA)>
2.234

> <Valence>
2.908

> <Coulomb>
69.435

> <VdW>
0.112

> <VdW6>
-7.765

> <VdW12>
7.877

> <Bond>
0.233

> <Angle>
1.170

> <Pdih>
1.506

> <Idih>
0.000

> <Tether>
0.000

$$$$
VeraChem MOL file


 26 25  0  0  0  0  0  0  0  0999 V2000     
   21.6567   19.6307   25.3643 N   0  3  0  0  0  0  0  0  0  0  0  0
   21.2195   18.8081   25.8079 H   0  0  0  0  0  0  0  0  0  0  0  0
   21.3764   20.4369   25.9442 H   0  0  0  0  0  0  0  0  0  0  0  0
   21.1399   19.7993   23.9499 C   0  0  0  0  0  0  0  0  0  0  0  0
   21.4549   18.9260   23.3737 H   0  0  0  0  0  0  0  0  0  0  0  0
   21.6158   20.6851   23.5217 H   0  0  0  0  0  0  0  0  0  0  0  0
   19.6083   19.9463   23.8742 C   0  0  0  0  0  0  0  0  0  0  0  0
   19.1294   19.0640   24.3177 H   0  0  0  0  0  0  0  0  0  0  0  0
   19.2988   20.8048   24.4850 H   0  0  0  0  0  0  0  0  0  0  0  0
   19.0992   20.1534   22.4261 C   0  0  0  0  0  0  0  0  0  0  0  0
   19.4920   21.1061   22.0447 H   0  0  0  0  0  0  0  0  0  0  0  0
   18.0073   20.2695   22.4425 H   0  0  0  0  0  0  0  0  0  0  0  0
   19.4863   19.0253   21.4318 C   0  0  0  0  0  0  0  0  0  0  0  0
   19.0608   19.2645   20.4474 H   0  0  0  0  0  0  0  0  0  0  0  0
   20.5753   19.0227   21.2887 H   0  0  0  0  0  0  0  0  0  0  0  0
   19.0310   17.6011   21.8403 C   0  0  0  0  0  0  0  0  0  0  0  0
   19.5276   17.2956   22.7710 H   0  0  0  0  0  0  0  0  0  0  0  0
   19.3697   16.8916   21.0724 H   0  0  0  0  0  0  0  0  0  0  0  0
   17.4992   17.4689   21.9983 C   0  0  0  0  0  0  0  0  0  0  0  0
   17.1259   18.0797   22.8296 H   0  0  0  0  0  0  0  0  0  0  0  0
   17.2221   16.4268   22.2034 H   0  0  0  0  0  0  0  0  0  0  0  0
   16.9799   17.7803   21.0827 H   0  0  0  0  0  0  0  0  0  0  0  0
   23.1721   19.4859   25.3479 C   0  0  0  0  0  0  0  0  0  0  0  0
   23.6136   20.3814   24.9049 H   0  0  0  0  0  0  0  0  0  0  0  0
   23.5316   19.3656   26.3723 H   0  0  0  0  0  0  0  0  0  0  0  0
   23.4428   18.6084   24.7566 H   0  0  0  0  0  0  0  0  0  0  0  0
  1  2  1  0  0  0  0
  1  3  1  0  0  0  0
  1  4  1  0  0  0  0
  4  5  1  0  0  0  0
  4  6  1  0  0  0  0
  4  7  1  0  0  0  0
  7  8  1  0  0  0  0
  7  9  1  0  0  0  0
  7 10  1  0  0  0  0
 10 11  1  0  0  0  0
 10 12  1  0  0  0  0
 10 13  1  0  0  0  0
 13 14  1  0  0  0  0
 13 15  1  0  0  0  0
 13 16  1  0  0  0  0
 16 17  1  0  0  0  0
 16 18  1  0  0  0  0
 16 19  1  0  0  0  0
 19 20  1  0  0  0  0
 19 21  1  0  0  0  0
 19 22  1  0  0  0  0
  1 23  1  0  0  0  0
 23 24  1  0  0  0  0
 23 25  1  0  0  0  0
 23 26  1  0  0  0  0
M  END
> <VConfSearch Rank>
858

> <Conf_Id>
71

> <Delta U+W>
1.096

> <U+W>
22.938

> <U>
72.455

> <W>
-49.517

> <W(PB)>
-51.795

> <W(SA)>
2.278

> <Valence>
2.908

> <Coulomb>
69.435

> <VdW>
0.112

> <VdW6>
-7.766

> <VdW12>
7.877

> <Bond>
0.233

> <Angle>
1.170

> <Pdih>
1.506

> <Idih>
0.000

> <Tether>
0.000

$$$$
VeraChem MOL file


 26 25  0  0  0  0  0  0  0  0999 V2000     
   22.1252   17.9587   22.7961 N   0  3  0  0  0  0  0  0  0  0  0  0
   21.4661   17.6667   23.5329 H   0  0  0  0  0  0  0  0  0  0  0  0
   23.0602   17.8957   23.2292 H   0  0  0  0  0  0  0  0  0  0  0  0
   21.8465   19.3974   22.3905 C   0  0  0  0  0  0  0  0  0  0  0  0
   22.5510   19.6610   21.5977 H   0  0  0  0  0  0  0  0  0  0  0  0
   22.0655   20.0286   23.2551 H   0  0  0  0  0  0  0  0  0  0  0  0
   20.4031   19.6769   21.9133 C   0  0  0  0  0  0  0  0  0  0  0  0
   20.3190   20.7411   21.6566 H   0  0  0  0  0  0  0  0  0  0  0  0
   20.2155   19.1269   20.9820 H   0  0  0  0  0  0  0  0  0  0  0  0
   19.3100   19.3139   22.9499 C   0  0  0  0  0  0  0  0  0  0  0  0
   19.3337   18.2352   23.1544 H   0  0  0  0  0  0  0  0  0  0  0  0
   18.3311   19.5170   22.4968 H   0  0  0  0  0  0  0  0  0  0  0  0
   19.4407   20.1040   24.2771 C   0  0  0  0  0  0  0  0  0  0  0  0
   20.4309   19.9257   24.7165 H   0  0  0  0  0  0  0  0  0  0  0  0
   19.3835   21.1821   24.0729 H   0  0  0  0  0  0  0  0  0  0  0  0
   18.3721   19.7211   25.3298 C   0  0  0  0  0  0  0  0  0  0  0  0
   18.6046   20.2385   26.2711 H   0  0  0  0  0  0  0  0  0  0  0  0
   18.4331   18.6457   25.5480 H   0  0  0  0  0  0  0  0  0  0  0  0
   16.9306   20.0850   24.9066 C   0  0  0  0  0  0  0  0  0  0  0  0
   16.6030   19.4974   24.0402 H   0  0  0  0  0  0  0  0  0  0  0  0
   16.8506   21.1496   24.6510 H   0  0  0  0  0  0  0  0  0  0  0  0
   16.2277   19.8833   25.7252 H   0  0  0  0  0  0  0  0  0  0  0  0
   22.0445   17.0223   21.5961 C   0  0  0  0  0  0  0  0  0  0  0  0
   22.2795   16.0058   21.9194 H   0  0  0  0  0  0  0  0  0  0  0  0
   21.0343   17.0520   21.1826 H   0  0  0  0  0  0  0  0  0  0  0  0
   22.7642   17.3448   20.8406 H   0  0  0  0  0  0  0  0  0  0  0  0
  1  2  1  0  0  0  0
  1  3  1  0  0  0  0
  1  4  1  0  0  0  0
  4  5  1  0  0  0  0
  4  6  1  0  0  0  0
  4  7  1  0  0  0  0
  7  8  1  0  0  0  0
  7  9  1  0  0  0  0
  7 10  1  0  0  0  0
 10 11  1  0  0  0  0
 10 12  1  0  0  0  0
 10 13  1  0  0  0  0
 13 14  1  0  0  0  0
 13 15  1  0  0  0  0
 13 16  1  0  0  0  0
 16 17  1  0  0  0  0
 16 18  1  0  0  0  0
 16 19  1  0  0  0  0
 19 20  1  0  0  0  0
 19 21  1  0  0  0  0
 19 22  1  0  0  0  0
  1 23  1  0  0  0  0
 23 24  1  0  0  0  0
 23 25  1  0  0  0  0
 23 26  1  0  0  0  0
M  END
> <VConfSearch Rank>
859

> <Conf_Id>
84

> <Delta U+W>
1.456

> <U+W>
23.298

> <U>
73.042

> <W>
-49.744

> <W(PB)>
-51.966

> <W(SA)>
2.222

> <Valence>
2.938

> <Coulomb>
69.625

> <VdW>
0.478

> <VdW6>
-8.182

> <VdW12>
8.660

> <Bond>
0.253

> <Angle>
1.038

> <Pdih>
1.647

> <Idih>
0.000

> <Tether>
0.000

$$$$
VeraChem MOL file


 26 25  0  0  0  0  0  0  0  0999 V2000     
   21.6812   20.6500   22.6856 N   0  3  0  0  0  0  0  0  0  0  0  0
   21.5099   20.3002   23.6403 H   0  0  0  0  0  0  0  0  0  0  0  0
   21.5791   21.6751   22.7435 H   0  0  0  0  0  0  0  0  0  0  0  0
   20.6518   20.0766   21.7315 C   0  0  0  0  0  0  0  0  0  0  0  0
   20.7938   18.9939   21.6941 H   0  0  0  0  0  0  0  0  0  0  0  0
   20.8602   20.4805   20.7376 H   0  0  0  0  0  0  0  0  0  0  0  0
   19.1937   20.3983   22.1197 C   0  0  0  0  0  0  0  0  0  0  0  0
   19.0488   21.4866   22.1028 H   0  0  0  0  0  0  0  0  0  0  0  0
   18.5268   19.9894   21.3490 H   0  0  0  0  0  0  0  0  0  0  0  0
   18.7721   19.8462   23.5048 C   0  0  0  0  0  0  0  0  0  0  0  0
   17.7290   20.1361   23.6930 H   0  0  0  0  0  0  0  0  0  0  0  0
   19.3671   20.3234   24.2949 H   0  0  0  0  0  0  0  0  0  0  0  0
   18.8978   18.3072   23.6120 C   0  0  0  0  0  0  0  0  0  0  0  0
   18.3202   17.8349   22.8052 H   0  0  0  0  0  0  0  0  0  0  0  0
   19.9441   18.0041   23.4732 H   0  0  0  0  0  0  0  0  0  0  0  0
   18.3969   17.7839   24.9766 C   0  0  0  0  0  0  0  0  0  0  0  0
   17.3464   18.0723   25.1223 H   0  0  0  0  0  0  0  0  0  0  0  0
   18.9698   18.2546   25.7879 H   0  0  0  0  0  0  0  0  0  0  0  0
   18.5253   16.2493   25.0831 C   0  0  0  0  0  0  0  0  0  0  0  0
   17.9351   15.7486   24.3045 H   0  0  0  0  0  0  0  0  0  0  0  0
   18.1643   15.8967   26.0580 H   0  0  0  0  0  0  0  0  0  0  0  0
   19.5709   15.9320   24.9765 H   0  0  0  0  0  0  0  0  0  0  0  0
   23.0824   20.2764   22.2228 C   0  0  0  0  0  0  0  0  0  0  0  0
   23.2506   20.6831   21.2232 H   0  0  0  0  0  0  0  0  0  0  0  0
   23.8130   20.6946   22.9189 H   0  0  0  0  0  0  0  0  0  0  0  0
   23.1750   19.1884   22.2002 H   0  0  0  0  0  0  0  0  0  0  0  0
  1  2  1  0  0  0  0
  1  3  1  0  0  0  0
  1  4  1  0  0  0  0
  4  5  1  0  0  0  0
  4  6  1  0  0  0  0
  4  7  1  0  0  0  0
  7  8  1  0  0  0  0
  7  9  1  0  0  0  0
  7 10  1  0  0  0  0
 10 11  1  0  0  0  0
 10 12  1  0  0  0  0
 10 13  1  0  0  0  0
 13 14  1  0  0  0  0
 13 15  1  0  0  0  0
 13 16  1  0  0  0  0
 16 17  1  0  0  0  0
 16 18  1  0  0  0  0
 16 19  1  0  0  0  0
 19 20  1  0  0  0  0
 19 21  1  0  0  0  0
 19 22  1  0  0  0  0
  1 23  1  0  0  0  0
 23 24  1  0  0  0  0
 23 25  1  0  0  0  0
 23 26  1  0  0  0  0
M  END
> <VConfSearch Rank>
860

> <Conf_Id>
73

> <Delta U+W>
0.884

> <U+W>
22.726

> <U>
71.905

> <W>
-49.179

> <W(PB)>
-51.494

> <W(SA)>
2.315

> <Valence>
2.125

> <Coulomb>
69.686

> <VdW>
0.093

> <VdW6>
-6.766

> <VdW12>
6.859

> <Bond>
0.169

> <Angle>
0.621

> <Pdih>
1.336

> <Idih>
0.000

> <Tether>
0.000

$$$$
VeraChem MOL file


 26 25  0  0  0  0  0  0  0  0999 V2000     
   19.4572   20.8673   25.9130 N   0  3  0  0  0  0  0  0  0  0  0  0
   18.4289   20.8227   25.8394 H   0  0  0  0  0  0  0  0  0  0  0  0
   19.7240   21.7688   25.4876 H   0  0  0  0  0  0  0  0  0  0  0  0
   20.0866   19.7210   25.1469 C   0  0  0  0  0  0  0  0  0  0  0  0
   19.7737   18.7881   25.6225 H   0  0  0  0  0  0  0  0  0  0  0  0
   21.1717   19.8094   25.2430 H   0  0  0  0  0  0  0  0  0  0  0  0
   19.6986   19.6986   23.6573 C   0  0  0  0  0  0  0  0  0  0  0  0
   18.6066   19.6264   23.5656 H   0  0  0  0  0  0  0  0  0  0  0  0
   19.9999   20.6443   23.1873 H   0  0  0  0  0  0  0  0  0  0  0  0
   20.3622   18.5155   22.9181 C   0  0  0  0  0  0  0  0  0  0  0  0
   20.0625   17.5716   23.3946 H   0  0  0  0  0  0  0  0  0  0  0  0
   21.4543   18.5883   23.0170 H   0  0  0  0  0  0  0  0  0  0  0  0
   19.9797   18.4829   21.4208 C   0  0  0  0  0  0  0  0  0  0  0  0
   18.8877   18.4101   21.3217 H   0  0  0  0  0  0  0  0  0  0  0  0
   20.2794   19.4266   20.9441 H   0  0  0  0  0  0  0  0  0  0  0  0
   20.6436   17.2996   20.6817 C   0  0  0  0  0  0  0  0  0  0  0  0
   20.3450   16.3528   21.1534 H   0  0  0  0  0  0  0  0  0  0  0  0
   21.7364   17.3692   20.7757 H   0  0  0  0  0  0  0  0  0  0  0  0
   20.2594   17.2702   19.1870 C   0  0  0  0  0  0  0  0  0  0  0  0
   20.7401   16.4237   18.6796 H   0  0  0  0  0  0  0  0  0  0  0  0
   20.5762   18.1907   18.6796 H   0  0  0  0  0  0  0  0  0  0  0  0
   19.1739   17.1663   19.0601 H   0  0  0  0  0  0  0  0  0  0  0  0
   19.8909   20.8158   27.3715 C   0  0  0  0  0  0  0  0  0  0  0  0
   20.9787   20.8981   27.4258 H   0  0  0  0  0  0  0  0  0  0  0  0
   19.4308   21.6463   27.9115 H   0  0  0  0  0  0  0  0  0  0  0  0
   19.5691   19.8681   27.8087 H   0  0  0  0  0  0  0  0  0  0  0  0
  1  2  1  0  0  0  0
  1  3  1  0  0  0  0
  1  4  1  0  0  0  0
  4  5  1  0  0  0  0
  4  6  1  0  0  0  0
  4  7  1  0  0  0  0
  7  8  1  0  0  0  0
  7  9  1  0  0  0  0
  7 10  1  0  0  0  0
 10 11  1  0  0  0  0
 10 12  1  0  0  0  0
 10 13  1  0  0  0  0
 13 14  1  0  0  0  0
 13 15  1  0  0  0  0
 13 16  1  0  0  0  0
 16 17  1  0  0  0  0
 16 18  1  0  0  0  0
 16 19  1  0  0  0  0
 19 20  1  0  0  0  0
 19 21  1  0  0  0  0
 19 22  1  0  0  0  0
  1 23  1  0  0  0  0
 23 24  1  0  0  0  0
 23 25  1  0  0  0  0
 23 26  1  0  0  0  0
M  END
> <VConfSearch Rank>
861

> <Conf_Id>
11

> <Delta U+W>
0.000

> <U+W>
21.842

> <U>
70.357

> <W>
-48.515

> <W(PB)>
-50.856

> <W(SA)>
2.341

> <Valence>
1.714

> <Coulomb>
68.480

> <VdW>
0.163

> <VdW6>
-5.268

> <VdW12>
5.431

> <Bond>
0.126

> <Angle>
0.350

> <Pdih>
1.238

> <Idih>
0.000

> <Tether>
0.000

$$$$
VeraChem MOL file


 26 25  0  0  0  0  0  0  0  0999 V2000     
   20.8725   21.5179   21.1236 N   0  3  0  0  0  0  0  0  0  0  0  0
   21.5817   21.6913   20.3936 H   0  0  0  0  0  0  0  0  0  0  0  0
   21.0886   22.1957   21.8708 H   0  0  0  0  0  0  0  0  0  0  0  0
   21.0163   20.0977   21.6447 C   0  0  0  0  0  0  0  0  0  0  0  0
   22.0733   19.9423   21.8756 H   0  0  0  0  0  0  0  0  0  0  0  0
   20.7414   19.4136   20.8380 H   0  0  0  0  0  0  0  0  0  0  0  0
   20.1786   19.7892   22.9024 C   0  0  0  0  0  0  0  0  0  0  0  0
   20.4257   20.5124   23.6908 H   0  0  0  0  0  0  0  0  0  0  0  0
   19.1113   19.9109   22.6765 H   0  0  0  0  0  0  0  0  0  0  0  0
   20.4365   18.3544   23.4133 C   0  0  0  0  0  0  0  0  0  0  0  0
   21.5054   18.2320   23.6375 H   0  0  0  0  0  0  0  0  0  0  0  0
   20.1942   17.6342   22.6192 H   0  0  0  0  0  0  0  0  0  0  0  0
   19.6035   18.0325   24.6750 C   0  0  0  0  0  0  0  0  0  0  0  0
   19.8455   18.7527   25.4689 H   0  0  0  0  0  0  0  0  0  0  0  0
   18.5347   18.1545   24.4509 H   0  0  0  0  0  0  0  0  0  0  0  0
   19.8617   16.5973   25.1857 C   0  0  0  0  0  0  0  0  0  0  0  0
   20.9294   16.4709   25.4138 H   0  0  0  0  0  0  0  0  0  0  0  0
   19.6187   15.8728   24.3958 H   0  0  0  0  0  0  0  0  0  0  0  0
   19.0282   16.2795   26.4456 C   0  0  0  0  0  0  0  0  0  0  0  0
   19.2251   15.2569   26.7929 H   0  0  0  0  0  0  0  0  0  0  0  0
   17.9532   16.3640   26.2396 H   0  0  0  0  0  0  0  0  0  0  0  0
   19.2742   16.9667   27.2656 H   0  0  0  0  0  0  0  0  0  0  0  0
   19.4777   21.7605   20.5578 C   0  0  0  0  0  0  0  0  0  0  0  0
   18.7387   21.6387   21.3522 H   0  0  0  0  0  0  0  0  0  0  0  0
   19.4252   22.7767   20.1607 H   0  0  0  0  0  0  0  0  0  0  0  0
   19.2849   21.0419   19.7583 H   0  0  0  0  0  0  0  0  0  0  0  0
  1  2  1  0  0  0  0
  1  3  1  0  0  0  0
  1  4  1  0  0  0  0
  4  5  1  0  0  0  0
  4  6  1  0  0  0  0
  4  7  1  0  0  0  0
  7  8  1  0  0  0  0
  7  9  1  0  0  0  0
  7 10  1  0  0  0  0
 10 11  1  0  0  0  0
 10 12  1  0  0  0  0
 10 13  1  0  0  0  0
 13 14  1  0  0  0  0
 13 15  1  0  0  0  0
 13 16  1  0  0  0  0
 16 17  1  0  0  0  0
 16 18  1  0  0  0  0
 16 19  1  0  0  0  0
 19 20  1  0  0  0  0
 19 21  1  0  0  0  0
 19 22  1  0  0  0  0
  1 23  1  0  0  0  0
 23 24  1  0  0  0  0
 23 25  1  0  0  0  0
 23 26  1  0  0  0  0
M  END
> <VConfSearch Rank>
862

> <Conf_Id>
102

> <Delta U+W>
0.121

> <U+W>
21.963

> <U>
70.745

> <W>
-48.782

> <W(PB)>
-51.111

> <W(SA)>
2.329

> <Valence>
1.993

> <Coulomb>
68.323

> <VdW>
0.429

> <VdW6>
-5.973

> <VdW12>
6.402

> <Bond>
0.161

> <Angle>
0.472

> <Pdih>
1.360

> <Idih>
0.000

> <Tether>
0.000

$$$$
VeraChem MOL file


 26 25  0  0  0  0  0  0  0  0999 V2000     
   21.2646   16.7281   25.4265 N   0  3  0  0  0  0  0  0  0  0  0  0
   20.5983   16.0017   25.1218 H   0  0  0  0  0  0  0  0  0  0  0  0
   21.3520   16.5978   26.4470 H   0  0  0  0  0  0  0  0  0  0  0  0
   20.7038   18.1105   25.1369 C   0  0  0  0  0  0  0  0  0  0  0  0
   21.4531   18.8474   25.4368 H   0  0  0  0  0  0  0  0  0  0  0  0
   19.8243   18.2434   25.7721 H   0  0  0  0  0  0  0  0  0  0  0  0
   20.2992   18.3421   23.6668 C   0  0  0  0  0  0  0  0  0  0  0  0
   21.1799   18.2425   23.0192 H   0  0  0  0  0  0  0  0  0  0  0  0
   19.5840   17.5676   23.3595 H   0  0  0  0  0  0  0  0  0  0  0  0
   19.6699   19.7390   23.4689 C   0  0  0  0  0  0  0  0  0  0  0  0
   20.3862   20.5108   23.7836 H   0  0  0  0  0  0  0  0  0  0  0  0
   18.7892   19.8393   24.1186 H   0  0  0  0  0  0  0  0  0  0  0  0
   19.2585   19.9838   21.9991 C   0  0  0  0  0  0  0  0  0  0  0  0
   20.1390   19.8839   21.3494 H   0  0  0  0  0  0  0  0  0  0  0  0
   18.5425   19.2119   21.6843 H   0  0  0  0  0  0  0  0  0  0  0  0
   18.6291   21.3809   21.8016 C   0  0  0  0  0  0  0  0  0  0  0  0
   19.3424   22.1569   22.1131 H   0  0  0  0  0  0  0  0  0  0  0  0
   17.7460   21.4850   22.4477 H   0  0  0  0  0  0  0  0  0  0  0  0
   18.2198   21.6218   20.3328 C   0  0  0  0  0  0  0  0  0  0  0  0
   19.0889   21.5584   19.6652 H   0  0  0  0  0  0  0  0  0  0  0  0
   17.7751   22.6183   20.2127 H   0  0  0  0  0  0  0  0  0  0  0  0
   17.4801   20.8810   20.0023 H   0  0  0  0  0  0  0  0  0  0  0  0
   22.6225   16.5321   24.7618 C   0  0  0  0  0  0  0  0  0  0  0  0
   23.3105   17.3024   25.1170 H   0  0  0  0  0  0  0  0  0  0  0  0
   23.0086   15.5442   25.0229 H   0  0  0  0  0  0  0  0  0  0  0  0
   22.5094   16.6069   23.6784 H   0  0  0  0  0  0  0  0  0  0  0  0
  1  2  1  0  0  0  0
  1  3  1  0  0  0  0
  1  4  1  0  0  0  0
  4  5  1  0  0  0  0
  4  6  1  0  0  0  0
  4  7  1  0  0  0  0
  7  8  1  0  0  0  0
  7  9  1  0  0  0  0
  7 10  1  0  0  0  0
 10 11  1  0  0  0  0
 10 12  1  0  0  0  0
 10 13  1  0  0  0  0
 13 14  1  0  0  0  0
 13 15  1  0  0  0  0
 13 16  1  0  0  0  0
 16 17  1  0  0  0  0
 16 18  1  0  0  0  0
 16 19  1  0  0  0  0
 19 20  1  0  0  0  0
 19 21  1  0  0  0  0
 19 22  1  0  0  0  0
  1 23  1  0  0  0  0
 23 24  1  0  0  0  0
 23 25  1  0  0  0  0
 23 26  1  0  0  0  0
M  END
> <VConfSearch Rank>
863

> <Conf_Id>
37

> <Delta U+W>
0.125

> <U+W>
21.967

> <U>
70.745

> <W>
-48.778

> <W(PB)>
-51.115

> <W(SA)>
2.337

> <Valence>
1.993

> <Coulomb>
68.323

> <VdW>
0.429

> <VdW6>
-5.973

> <VdW12>
6.403

> <Bond>
0.161

> <Angle>
0.472

> <Pdih>
1.360

> <Idih>
0.000

> <Tether>
0.000

$$$$
VeraChem MOL file


 26 25  0  0  0  0  0  0  0  0999 V2000     
   19.3398   16.4551   21.9478 N   0  3  0  0  0  0  0  0  0  0  0  0
   20.0165   16.2376   21.1998 H   0  0  0  0  0  0  0  0  0  0  0  0
   18.4905   16.7836   21.4624 H   0  0  0  0  0  0  0  0  0  0  0  0
   19.8852   17.5479   22.8449 C   0  0  0  0  0  0  0  0  0  0  0  0
   20.7865   17.1649   23.3300 H   0  0  0  0  0  0  0  0  0  0  0  0
   19.1375   17.7490   23.6156 H   0  0  0  0  0  0  0  0  0  0  0  0
   20.2173   18.8480   22.0872 C   0  0  0  0  0  0  0  0  0  0  0  0
   20.9335   18.6219   21.2860 H   0  0  0  0  0  0  0  0  0  0  0  0
   19.3120   19.2337   21.5998 H   0  0  0  0  0  0  0  0  0  0  0  0
   20.8196   19.9394   23.0037 C   0  0  0  0  0  0  0  0  0  0  0  0
   21.1302   20.7832   22.3741 H   0  0  0  0  0  0  0  0  0  0  0  0
   21.7314   19.5546   23.4811 H   0  0  0  0  0  0  0  0  0  0  0  0
   19.8303   20.4366   24.0887 C   0  0  0  0  0  0  0  0  0  0  0  0
   18.9273   20.8400   23.6101 H   0  0  0  0  0  0  0  0  0  0  0  0
   19.5013   19.5879   24.7028 H   0  0  0  0  0  0  0  0  0  0  0  0
   20.4356   21.5054   25.0311 C   0  0  0  0  0  0  0  0  0  0  0  0
   21.3332   21.1034   25.5217 H   0  0  0  0  0  0  0  0  0  0  0  0
   19.7152   21.7148   25.8342 H   0  0  0  0  0  0  0  0  0  0  0  0
   20.7826   22.8322   24.3176 C   0  0  0  0  0  0  0  0  0  0  0  0
   21.5923   22.6999   23.5895 H   0  0  0  0  0  0  0  0  0  0  0  0
   21.1146   23.5838   25.0454 H   0  0  0  0  0  0  0  0  0  0  0  0
   19.9090   23.2382   23.7915 H   0  0  0  0  0  0  0  0  0  0  0  0
   19.0367   15.2115   22.7720 C   0  0  0  0  0  0  0  0  0  0  0  0
   18.2945   15.4580   23.5345 H   0  0  0  0  0  0  0  0  0  0  0  0
   18.6450   14.4325   22.1142 H   0  0  0  0  0  0  0  0  0  0  0  0
   19.9558   14.8638   23.2488 H   0  0  0  0  0  0  0  0  0  0  0  0
  1  2  1  0  0  0  0
  1  3  1  0  0  0  0
  1  4  1  0  0  0  0
  4  5  1  0  0  0  0
  4  6  1  0  0  0  0
  4  7  1  0  0  0  0
  7  8  1  0  0  0  0
  7  9  1  0  0  0  0
  7 10  1  0  0  0  0
 10 11  1  0  0  0  0
 10 12  1  0  0  0  0
 10 13  1  0  0  0  0
 13 14  1  0  0  0  0
 13 15  1  0  0  0  0
 13 16  1  0  0  0  0
 16 17  1  0  0  0  0
 16 18  1  0  0  0  0
 16 19  1  0  0  0  0
 19 20  1  0  0  0  0
 19 21  1  0  0  0  0
 19 22  1  0  0  0  0
  1 23  1  0  0  0  0
 23 24  1  0  0  0  0
 23 25  1  0  0  0  0
 23 26  1  0  0  0  0
M  END
> <VConfSearch Rank>
864

> <Conf_Id>
137

> <Delta U+W>
1.038

> <U+W>
22.880

> <U>
71.810

> <W>
-48.930

> <W(PB)>
-51.257

> <W(SA)>
2.327

> <Valence>
2.568

> <Coulomb>
68.877

> <VdW>
0.364

> <VdW6>
-6.470

> <VdW12>
6.834

> <Bond>
0.191

> <Angle>
0.752

> <Pdih>
1.626

> <Idih>
0.000

> <Tether>
0.000

$$$$
VeraChem MOL file


 26 25  0  0  0  0  0  0  0  0999 V2000     
   19.7721   16.6858   25.0516 N   0  3  0  0  0  0  0  0  0  0  0  0
   20.6955   16.3790   24.7082 H   0  0  0  0  0  0  0  0  0  0  0  0
   19.0830   16.2119   24.4472 H   0  0  0  0  0  0  0  0  0  0  0  0
   19.6376   18.1895   24.9186 C   0  0  0  0  0  0  0  0  0  0  0  0
   20.3875   18.6518   25.5656 H   0  0  0  0  0  0  0  0  0  0  0  0
   18.6469   18.4710   25.2842 H   0  0  0  0  0  0  0  0  0  0  0  0
   19.8191   18.6920   23.4748 C   0  0  0  0  0  0  0  0  0  0  0  0
   20.8090   18.3873   23.1127 H   0  0  0  0  0  0  0  0  0  0  0  0
   19.0742   18.2127   22.8257 H   0  0  0  0  0  0  0  0  0  0  0  0
   19.6706   20.2296   23.3912 C   0  0  0  0  0  0  0  0  0  0  0  0
   20.4470   20.7107   24.0022 H   0  0  0  0  0  0  0  0  0  0  0  0
   18.7073   20.5192   23.8341 H   0  0  0  0  0  0  0  0  0  0  0  0
   19.7316   20.7813   21.9454 C   0  0  0  0  0  0  0  0  0  0  0  0
   18.9439   20.3135   21.3388 H   0  0  0  0  0  0  0  0  0  0  0  0
   19.5013   21.8554   21.9729 H   0  0  0  0  0  0  0  0  0  0  0  0
   21.1052   20.5797   21.2622 C   0  0  0  0  0  0  0  0  0  0  0  0
   21.3211   19.5087   21.1522 H   0  0  0  0  0  0  0  0  0  0  0  0
   21.8995   21.0018   21.8936 H   0  0  0  0  0  0  0  0  0  0  0  0
   21.1516   21.2446   19.8697 C   0  0  0  0  0  0  0  0  0  0  0  0
   20.3872   20.8217   19.2048 H   0  0  0  0  0  0  0  0  0  0  0  0
   22.1308   21.0895   19.3985 H   0  0  0  0  0  0  0  0  0  0  0  0
   20.9808   22.3266   19.9423 H   0  0  0  0  0  0  0  0  0  0  0  0
   19.5795   16.2750   26.5049 C   0  0  0  0  0  0  0  0  0  0  0  0
   18.5843   16.5804   26.8355 H   0  0  0  0  0  0  0  0  0  0  0  0
   19.6787   15.1903   26.5867 H   0  0  0  0  0  0  0  0  0  0  0  0
   20.3395   16.7623   27.1196 H   0  0  0  0  0  0  0  0  0  0  0  0
  1  2  1  0  0  0  0
  1  3  1  0  0  0  0
  1  4  1  0  0  0  0
  4  5  1  0  0  0  0
  4  6  1  0  0  0  0
  4  7  1  0  0  0  0
  7  8  1  0  0  0  0
  7  9  1  0  0  0  0
  7 10  1  0  0  0  0
 10 11  1  0  0  0  0
 10 12  1  0  0  0  0
 10 13  1  0  0  0  0
 13 14  1  0  0  0  0
 13 15  1  0  0  0  0
 13 16  1  0  0  0  0
 16 17  1  0  0  0  0
 16 18  1  0  0  0  0
 16 19  1  0  0  0  0
 19 20  1  0  0  0  0
 19 21  1  0  0  0  0
 19 22  1  0  0  0  0
  1 23  1  0  0  0  0
 23 24  1  0  0  0  0
 23 25  1  0  0  0  0
 23 26  1  0  0  0  0
M  END
> <VConfSearch Rank>
865

> <Conf_Id>
35

> <Delta U+W>
0.670

> <U+W>
22.512

> <U>
71.348

> <W>
-48.837

> <W(PB)>
-51.150

> <W(SA)>
2.313

> <Valence>
2.262

> <Coulomb>
68.807

> <VdW>
0.280

> <VdW6>
-5.915

> <VdW12>
6.195

> <Bond>
0.164

> <Angle>
0.622

> <Pdih>
1.475

> <Idih>
0.000

> <Tether>
0.000

$$$$
VeraChem MOL file


 26 25  0  0  0  0  0  0  0  0999 V2000     
   21.0964   17.5067   25.5904 N   0  3  0  0  0  0  0  0  0  0  0  0
   21.2038   18.3232   26.2121 H   0  0  0  0  0  0  0  0  0  0  0  0
   21.9824   17.4430   25.0652 H   0  0  0  0  0  0  0  0  0  0  0  0
   19.9379   17.7236   24.6377 C   0  0  0  0  0  0  0  0  0  0  0  0
   19.0236   17.7932   25.2324 H   0  0  0  0  0  0  0  0  0  0  0  0
   19.8637   16.8434   23.9941 H   0  0  0  0  0  0  0  0  0  0  0  0
   20.0900   18.9872   23.7715 C   0  0  0  0  0  0  0  0  0  0  0  0
   20.1804   19.8668   24.4227 H   0  0  0  0  0  0  0  0  0  0  0  0
   21.0200   18.9140   23.1940 H   0  0  0  0  0  0  0  0  0  0  0  0
   18.8836   19.1655   22.8197 C   0  0  0  0  0  0  0  0  0  0  0  0
   17.9577   19.1536   23.4117 H   0  0  0  0  0  0  0  0  0  0  0  0
   18.8218   18.3083   22.1349 H   0  0  0  0  0  0  0  0  0  0  0  0
   18.9267   20.4805   22.0027 C   0  0  0  0  0  0  0  0  0  0  0  0
   17.9826   20.5770   21.4488 H   0  0  0  0  0  0  0  0  0  0  0  0
   18.9704   21.3387   22.6875 H   0  0  0  0  0  0  0  0  0  0  0  0
   20.1052   20.5507   21.0024 C   0  0  0  0  0  0  0  0  0  0  0  0
   20.0922   19.6660   20.3506 H   0  0  0  0  0  0  0  0  0  0  0  0
   21.0619   20.5355   21.5411 H   0  0  0  0  0  0  0  0  0  0  0  0
   20.0402   21.8258   20.1347 C   0  0  0  0  0  0  0  0  0  0  0  0
   19.1134   21.8575   19.5472 H   0  0  0  0  0  0  0  0  0  0  0  0
   20.8842   21.8611   19.4336 H   0  0  0  0  0  0  0  0  0  0  0  0
   20.0815   22.7293   20.7571 H   0  0  0  0  0  0  0  0  0  0  0  0
   20.8669   16.2414   26.4055 C   0  0  0  0  0  0  0  0  0  0  0  0
   20.7897   15.3874   25.7290 H   0  0  0  0  0  0  0  0  0  0  0  0
   21.7081   16.0971   27.0873 H   0  0  0  0  0  0  0  0  0  0  0  0
   19.9422   16.3455   26.9775 H   0  0  0  0  0  0  0  0  0  0  0  0
  1  2  1  0  0  0  0
  1  3  1  0  0  0  0
  1  4  1  0  0  0  0
  4  5  1  0  0  0  0
  4  6  1  0  0  0  0
  4  7  1  0  0  0  0
  7  8  1  0  0  0  0
  7  9  1  0  0  0  0
  7 10  1  0  0  0  0
 10 11  1  0  0  0  0
 10 12  1  0  0  0  0
 10 13  1  0  0  0  0
 13 14  1  0  0  0  0
 13 15  1  0  0  0  0
 13 16  1  0  0  0  0
 16 17  1  0  0  0  0
 16 18  1  0  0  0  0
 16 19  1  0  0  0  0
 19 20  1  0  0  0  0
 19 21  1  0  0  0  0
 19 22  1  0  0  0  0
  1 23  1  0  0  0  0
 23 24  1  0  0  0  0
 23 25  1  0  0  0  0
 23 26  1  0  0  0  0
M  END
> <VConfSearch Rank>
866

> <Conf_Id>
36

> <Delta U+W>
0.662

> <U+W>
22.504

> <U>
71.348

> <W>
-48.844

> <W(PB)>
-51.157

> <W(SA)>
2.313

> <Valence>
2.262

> <Coulomb>
68.807

> <VdW>
0.280

> <VdW6>
-5.916

> <VdW12>
6.195

> <Bond>
0.164

> <Angle>
0.622

> <Pdih>
1.475

> <Idih>
0.000

> <Tether>
0.000

$$$$
VeraChem MOL file


 26 25  0  0  0  0  0  0  0  0999 V2000     
   18.9790   21.6139   22.0717 N   0  3  0  0  0  0  0  0  0  0  0  0
   19.4473   21.5312   21.1559 H   0  0  0  0  0  0  0  0  0  0  0  0
   19.2997   22.5129   22.4638 H   0  0  0  0  0  0  0  0  0  0  0  0
   19.3938   20.4711   22.9764 C   0  0  0  0  0  0  0  0  0  0  0  0
   19.0401   19.5424   22.5225 H   0  0  0  0  0  0  0  0  0  0  0  0
   18.8864   20.6015   23.9356 H   0  0  0  0  0  0  0  0  0  0  0  0
   20.9162   20.3948   23.2018 C   0  0  0  0  0  0  0  0  0  0  0  0
   21.4262   20.2655   22.2379 H   0  0  0  0  0  0  0  0  0  0  0  0
   21.2658   21.3495   23.6169 H   0  0  0  0  0  0  0  0  0  0  0  0
   21.3216   19.2515   24.1619 C   0  0  0  0  0  0  0  0  0  0  0  0
   20.8314   19.3987   25.1344 H   0  0  0  0  0  0  0  0  0  0  0  0
   22.4029   19.3140   24.3470 H   0  0  0  0  0  0  0  0  0  0  0  0
   20.9798   17.8456   23.6121 C   0  0  0  0  0  0  0  0  0  0  0  0
   19.8950   17.7517   23.4687 H   0  0  0  0  0  0  0  0  0  0  0  0
   21.4439   17.7144   22.6247 H   0  0  0  0  0  0  0  0  0  0  0  0
   21.4635   16.7253   24.5598 C   0  0  0  0  0  0  0  0  0  0  0  0
   21.0028   16.8521   25.5496 H   0  0  0  0  0  0  0  0  0  0  0  0
   22.5503   16.8041   24.7040 H   0  0  0  0  0  0  0  0  0  0  0  0
   21.1207   15.3237   24.0113 C   0  0  0  0  0  0  0  0  0  0  0  0
   20.0365   15.2015   23.8893 H   0  0  0  0  0  0  0  0  0  0  0  0
   21.4723   14.5423   24.6974 H   0  0  0  0  0  0  0  0  0  0  0  0
   21.5956   15.1542   23.0362 H   0  0  0  0  0  0  0  0  0  0  0  0
   17.4663   21.6155   21.8998 C   0  0  0  0  0  0  0  0  0  0  0  0
   16.9939   21.7372   22.8771 H   0  0  0  0  0  0  0  0  0  0  0  0
   17.1809   22.4432   21.2466 H   0  0  0  0  0  0  0  0  0  0  0  0
   17.1545   20.6688   21.4532 H   0  0  0  0  0  0  0  0  0  0  0  0
  1  2  1  0  0  0  0
  1  3  1  0  0  0  0
  1  4  1  0  0  0  0
  4  5  1  0  0  0  0
  4  6  1  0  0  0  0
  4  7  1  0  0  0  0
  7  8  1  0  0  0  0
  7  9  1  0  0  0  0
  7 10  1  0  0  0  0
 10 11  1  0  0  0  0
 10 12  1  0  0  0  0
 10 13  1  0  0  0  0
 13 14  1  0  0  0  0
 13 15  1  0  0  0  0
 13 16  1  0  0  0  0
 16 17  1  0  0  0  0
 16 18  1  0  0  0  0
 16 19  1  0  0  0  0
 19 20  1  0  0  0  0
 19 21  1  0  0  0  0
 19 22  1  0  0  0  0
  1 23  1  0  0  0  0
 23 24  1  0  0  0  0
 23 25  1  0  0  0  0
 23 26  1  0  0  0  0
M  END
> <VConfSearch Rank>
867

> <Conf_Id>
46

> <Delta U+W>
0.496

> <U+W>
22.338

> <U>
71.138

> <W>
-48.799

> <W(PB)>
-51.136

> <W(SA)>
2.337

> <Valence>
2.016

> <Coulomb>
68.932

> <VdW>
0.190

> <VdW6>
-5.902

> <VdW12>
6.092

> <Bond>
0.149

> <Angle>
0.477

> <Pdih>
1.390

> <Idih>
0.000

> <Tether>
0.000

$$$$
VeraChem MOL file


 26 25  0  0  0  0  0  0  0  0999 V2000     
   19.6990   17.9577   20.4883 N   0  3  0  0  0  0  0  0  0  0  0  0
   19.5637   18.6358   19.7222 H   0  0  0  0  0  0  0  0  0  0  0  0
   18.7789   17.5110   20.6250 H   0  0  0  0  0  0  0  0  0  0  0  0
   20.1250   18.6756   21.7530 C   0  0  0  0  0  0  0  0  0  0  0  0
   21.0949   19.1423   21.5633 H   0  0  0  0  0  0  0  0  0  0  0  0
   20.2512   17.9239   22.5357 H   0  0  0  0  0  0  0  0  0  0  0  0
   19.1168   19.7454   22.2148 C   0  0  0  0  0  0  0  0  0  0  0  0
   18.9656   20.4700   21.4036 H   0  0  0  0  0  0  0  0  0  0  0  0
   18.1417   19.2769   22.4038 H   0  0  0  0  0  0  0  0  0  0  0  0
   19.5848   20.5005   23.4813 C   0  0  0  0  0  0  0  0  0  0  0  0
   18.8667   21.3035   23.6981 H   0  0  0  0  0  0  0  0  0  0  0  0
   20.5475   20.9911   23.2805 H   0  0  0  0  0  0  0  0  0  0  0  0
   19.7141   19.5847   24.7225 C   0  0  0  0  0  0  0  0  0  0  0  0
   18.7596   19.0703   24.9005 H   0  0  0  0  0  0  0  0  0  0  0  0
   20.4658   18.8056   24.5379 H   0  0  0  0  0  0  0  0  0  0  0  0
   20.1113   20.3817   25.9851 C   0  0  0  0  0  0  0  0  0  0  0  0
   19.3609   21.1596   26.1849 H   0  0  0  0  0  0  0  0  0  0  0  0
   21.0655   20.8992   25.8124 H   0  0  0  0  0  0  0  0  0  0  0  0
   20.2416   19.4672   27.2219 C   0  0  0  0  0  0  0  0  0  0  0  0
   19.2923   18.9610   27.4405 H   0  0  0  0  0  0  0  0  0  0  0  0
   20.5235   20.0510   28.1077 H   0  0  0  0  0  0  0  0  0  0  0  0
   21.0105   18.6993   27.0662 H   0  0  0  0  0  0  0  0  0  0  0  0
   20.7448   16.9200   20.1045 C   0  0  0  0  0  0  0  0  0  0  0  0
   20.4260   16.4106   19.1923 H   0  0  0  0  0  0  0  0  0  0  0  0
   21.7007   17.4199   19.9329 H   0  0  0  0  0  0  0  0  0  0  0  0
   20.8463   16.1954   20.9154 H   0  0  0  0  0  0  0  0  0  0  0  0
  1  2  1  0  0  0  0
  1  3  1  0  0  0  0
  1  4  1  0  0  0  0
  4  5  1  0  0  0  0
  4  6  1  0  0  0  0
  4  7  1  0  0  0  0
  7  8  1  0  0  0  0
  7  9  1  0  0  0  0
  7 10  1  0  0  0  0
 10 11  1  0  0  0  0
 10 12  1  0  0  0  0
 10 13  1  0  0  0  0
 13 14  1  0  0  0  0
 13 15  1  0  0  0  0
 13 16  1  0  0  0  0
 16 17  1  0  0  0  0
 16 18  1  0  0  0  0
 16 19  1  0  0  0  0
 19 20  1  0  0  0  0
 19 21  1  0  0  0  0
 19 22  1  0  0  0  0
  1 23  1  0  0  0  0
 23 24  1  0  0  0  0
 23 25  1  0  0  0  0
 23 26  1  0  0  0  0
M  END
> <VConfSearch Rank>
868

> <Conf_Id>
45

> <Delta U+W>
0.471

> <U+W>
22.313

> <U>
71.138

> <W>
-48.825

> <W(PB)>
-51.169

> <W(SA)>
2.344

> <Valence>
2.016

> <Coulomb>
68.932

> <VdW>
0.190

> <VdW6>
-5.902

> <VdW12>
6.092

> <Bond>
0.149

> <Angle>
0.477

> <Pdih>
1.390

> <Idih>
0.000

> <Tether>
0.000

$$$$
VeraChem MOL file


 26 25  0  0  0  0  0  0  0  0999 V2000     
   21.0583   18.6816   25.6581 N   0  3  0  0  0  0  0  0  0  0  0  0
   20.4012   17.9161   25.4451 H   0  0  0  0  0  0  0  0  0  0  0  0
   20.4712   19.4731   25.9638 H   0  0  0  0  0  0  0  0  0  0  0  0
   21.8377   19.0601   24.4135 C   0  0  0  0  0  0  0  0  0  0  0  0
   22.4381   18.1967   24.1160 H   0  0  0  0  0  0  0  0  0  0  0  0
   22.5179   19.8717   24.6842 H   0  0  0  0  0  0  0  0  0  0  0  0
   20.9520   19.5072   23.2339 C   0  0  0  0  0  0  0  0  0  0  0  0
   20.3552   20.3748   23.5423 H   0  0  0  0  0  0  0  0  0  0  0  0
   21.6050   19.8474   22.4193 H   0  0  0  0  0  0  0  0  0  0  0  0
   20.0335   18.3721   22.7159 C   0  0  0  0  0  0  0  0  0  0  0  0
   19.3137   18.0838   23.4937 H   0  0  0  0  0  0  0  0  0  0  0  0
   20.6455   17.4817   22.5151 H   0  0  0  0  0  0  0  0  0  0  0  0
   19.2661   18.7415   21.4225 C   0  0  0  0  0  0  0  0  0  0  0  0
   19.9818   19.0078   20.6324 H   0  0  0  0  0  0  0  0  0  0  0  0
   18.7334   17.8488   21.0665 H   0  0  0  0  0  0  0  0  0  0  0  0
   18.2485   19.8913   21.6138 C   0  0  0  0  0  0  0  0  0  0  0  0
   18.7692   20.8158   21.8966 H   0  0  0  0  0  0  0  0  0  0  0  0
   17.5627   19.6472   22.4370 H   0  0  0  0  0  0  0  0  0  0  0  0
   17.4330   20.1495   20.3288 C   0  0  0  0  0  0  0  0  0  0  0  0
   18.0896   20.4257   19.4934 H   0  0  0  0  0  0  0  0  0  0  0  0
   16.7188   20.9691   20.4809 H   0  0  0  0  0  0  0  0  0  0  0  0
   16.8639   19.2576   20.0357 H   0  0  0  0  0  0  0  0  0  0  0  0
   22.0180   18.2686   26.7653 C   0  0  0  0  0  0  0  0  0  0  0  0
   22.6823   19.1046   26.9950 H   0  0  0  0  0  0  0  0  0  0  0  0
   21.4442   17.9983   27.6546 H   0  0  0  0  0  0  0  0  0  0  0  0
   22.6051   17.4107   26.4302 H   0  0  0  0  0  0  0  0  0  0  0  0
  1  2  1  0  0  0  0
  1  3  1  0  0  0  0
  1  4  1  0  0  0  0
  4  5  1  0  0  0  0
  4  6  1  0  0  0  0
  4  7  1  0  0  0  0
  7  8  1  0  0  0  0
  7  9  1  0  0  0  0
  7 10  1  0  0  0  0
 10 11  1  0  0  0  0
 10 12  1  0  0  0  0
 10 13  1  0  0  0  0
 13 14  1  0  0  0  0
 13 15  1  0  0  0  0
 13 16  1  0  0  0  0
 16 17  1  0  0  0  0
 16 18  1  0  0  0  0
 16 19  1  0  0  0  0
 19 20  1  0  0  0  0
 19 21  1  0  0  0  0
 19 22  1  0  0  0  0
  1 23  1  0  0  0  0
 23 24  1  0  0  0  0
 23 25  1  0  0  0  0
 23 26  1  0  0  0  0
M  END
> <VConfSearch Rank>
869

> <Conf_Id>
143

> <Delta U+W>
0.915

> <U+W>
22.757

> <U>
71.994

> <W>
-49.237

> <W(PB)>
-51.537

> <W(SA)>
2.300

> <Valence>
2.376

> <Coulomb>
69.315

> <VdW>
0.303

> <VdW6>
-6.508

> <VdW12>
6.810

> <Bond>
0.182

> <Angle>
0.660

> <Pdih>
1.534

> <Idih>
0.000

> <Tether>
0.000

$$$$
VeraChem MOL file


 26 25  0  0  0  0  0  0  0  0999 V2000     
   19.7621   21.4300   22.2792 N   0  3  0  0  0  0  0  0  0  0  0  0
   19.6332   21.6523   23.2777 H   0  0  0  0  0  0  0  0  0  0  0  0
   18.8175   21.2262   21.9173 H   0  0  0  0  0  0  0  0  0  0  0  0
   20.6532   20.2123   22.1263 C   0  0  0  0  0  0  0  0  0  0  0  0
   21.6386   20.4617   22.5279 H   0  0  0  0  0  0  0  0  0  0  0  0
   20.7607   20.0171   21.0563 H   0  0  0  0  0  0  0  0  0  0  0  0
   20.1134   18.9476   22.8231 C   0  0  0  0  0  0  0  0  0  0  0  0
   19.1109   18.7163   22.4398 H   0  0  0  0  0  0  0  0  0  0  0  0
   20.7638   18.1093   22.5452 H   0  0  0  0  0  0  0  0  0  0  0  0
   20.0785   19.0824   24.3651 C   0  0  0  0  0  0  0  0  0  0  0  0
   19.5148   19.9831   24.6413 H   0  0  0  0  0  0  0  0  0  0  0  0
   21.1001   19.2350   24.7401 H   0  0  0  0  0  0  0  0  0  0  0  0
   19.4365   17.8758   25.0982 C   0  0  0  0  0  0  0  0  0  0  0  0
   19.4306   18.1076   26.1723 H   0  0  0  0  0  0  0  0  0  0  0  0
   18.3802   17.7785   24.8120 H   0  0  0  0  0  0  0  0  0  0  0  0
   20.1723   16.5250   24.9012 C   0  0  0  0  0  0  0  0  0  0  0  0
   20.1119   15.9539   25.8383 H   0  0  0  0  0  0  0  0  0  0  0  0
   21.2429   16.6952   24.7208 H   0  0  0  0  0  0  0  0  0  0  0  0
   19.5678   15.6550   23.7741 C   0  0  0  0  0  0  0  0  0  0  0  0
   19.6115   16.1524   22.7991 H   0  0  0  0  0  0  0  0  0  0  0  0
   18.5171   15.4167   23.9843 H   0  0  0  0  0  0  0  0  0  0  0  0
   20.1127   14.7060   23.6877 H   0  0  0  0  0  0  0  0  0  0  0  0
   20.3726   22.6148   21.5435 C   0  0  0  0  0  0  0  0  0  0  0  0
   20.4697   22.3681   20.4840 H   0  0  0  0  0  0  0  0  0  0  0  0
   19.7217   23.4840   21.6618 H   0  0  0  0  0  0  0  0  0  0  0  0
   21.3568   22.8307   21.9650 H   0  0  0  0  0  0  0  0  0  0  0  0
  1  2  1  0  0  0  0
  1  3  1  0  0  0  0
  1  4  1  0  0  0  0
  4  5  1  0  0  0  0
  4  6  1  0  0  0  0
  4  7  1  0  0  0  0
  7  8  1  0  0  0  0
  7  9  1  0  0  0  0
  7 10  1  0  0  0  0
 10 11  1  0  0  0  0
 10 12  1  0  0  0  0
 10 13  1  0  0  0  0
 13 14  1  0  0  0  0
 13 15  1  0  0  0  0
 13 16  1  0  0  0  0
 16 17  1  0  0  0  0
 16 18  1  0  0  0  0
 16 19  1  0  0  0  0
 19 20  1  0  0  0  0
 19 21  1  0  0  0  0
 19 22  1  0  0  0  0
  1 23  1  0  0  0  0
 23 24  1  0  0  0  0
 23 25  1  0  0  0  0
 23 26  1  0  0  0  0
M  END
> <VConfSearch Rank>
870

> <Conf_Id>
76

> <Delta U+W>
3.468

> <U+W>
25.310

> <U>
74.594

> <W>
-49.283

> <W(PB)>
-51.537

> <W(SA)>
2.253

> <Valence>
4.886

> <Coulomb>
69.332

> <VdW>
0.376

> <VdW6>
-7.329

> <VdW12>
7.705

> <Bond>
0.232

> <Angle>
1.251

> <Pdih>
3.403

> <Idih>
0.000

> <Tether>
0.000

$$$$
VeraChem MOL file


 26 25  0  0  0  0  0  0  0  0999 V2000     
   20.1311   17.1198   25.3093 N   0  3  0  0  0  0  0  0  0  0  0  0
   20.9346   16.7349   24.7887 H   0  0  0  0  0  0  0  0  0  0  0  0
   19.3233   16.5382   25.0371 H   0  0  0  0  0  0  0  0  0  0  0  0
   19.8934   18.5631   24.9128 C   0  0  0  0  0  0  0  0  0  0  0  0
   20.7716   19.1416   25.2108 H   0  0  0  0  0  0  0  0  0  0  0  0
   19.0324   18.9286   25.4780 H   0  0  0  0  0  0  0  0  0  0  0  0
   19.6396   18.7469   23.4057 C   0  0  0  0  0  0  0  0  0  0  0  0
   20.4960   18.3549   22.8459 H   0  0  0  0  0  0  0  0  0  0  0  0
   18.7666   18.1501   23.1098 H   0  0  0  0  0  0  0  0  0  0  0  0
   19.3923   20.2337   23.0537 C   0  0  0  0  0  0  0  0  0  0  0  0
   20.2323   20.8536   23.3966 H   0  0  0  0  0  0  0  0  0  0  0  0
   18.5133   20.5759   23.6178 H   0  0  0  0  0  0  0  0  0  0  0  0
   19.1318   20.4776   21.5440 C   0  0  0  0  0  0  0  0  0  0  0  0
   18.6548   19.5973   21.0916 H   0  0  0  0  0  0  0  0  0  0  0  0
   18.3988   21.2910   21.4507 H   0  0  0  0  0  0  0  0  0  0  0  0
   20.3844   20.8843   20.7261 C   0  0  0  0  0  0  0  0  0  0  0  0
   20.7935   21.8246   21.1215 H   0  0  0  0  0  0  0  0  0  0  0  0
   20.0718   21.0996   19.6947 H   0  0  0  0  0  0  0  0  0  0  0  0
   21.4988   19.8155   20.6921 C   0  0  0  0  0  0  0  0  0  0  0  0
   21.1069   18.8441   20.3641 H   0  0  0  0  0  0  0  0  0  0  0  0
   21.9629   19.6919   21.6782 H   0  0  0  0  0  0  0  0  0  0  0  0
   22.2916   20.1108   19.9927 H   0  0  0  0  0  0  0  0  0  0  0  0
   20.3736   17.0280   26.8095 C   0  0  0  0  0  0  0  0  0  0  0  0
   21.2516   17.6239   27.0685 H   0  0  0  0  0  0  0  0  0  0  0  0
   19.4978   17.4097   27.3389 H   0  0  0  0  0  0  0  0  0  0  0  0
   20.5431   15.9838   27.0818 H   0  0  0  0  0  0  0  0  0  0  0  0
  1  2  1  0  0  0  0
  1  3  1  0  0  0  0
  1  4  1  0  0  0  0
  4  5  1  0  0  0  0
  4  6  1  0  0  0  0
  4  7  1  0  0  0  0
  7  8  1  0  0  0  0
  7  9  1  0  0  0  0
  7 10  1  0  0  0  0
 10 11  1  0  0  0  0
 10 12  1  0  0  0  0
 10 13  1  0  0  0  0
 13 14  1  0  0  0  0
 13 15  1  0  0  0  0
 13 16  1  0  0  0  0
 16 17  1  0  0  0  0
 16 18  1  0  0  0  0
 16 19  1  0  0  0  0
 19 20  1  0  0  0  0
 19 21  1  0  0  0  0
 19 22  1  0  0  0  0
  1 23  1  0  0  0  0
 23 24  1  0  0  0  0
 23 25  1  0  0  0  0
 23 26  1  0  0  0  0
M  END
> <VConfSearch Rank>
871

> <Conf_Id>
123

> <Delta U+W>
3.101

> <U+W>
24.943

> <U>
74.070

> <W>
-49.127

> <W(PB)>
-51.421

> <W(SA)>
2.295

> <Valence>
4.690

> <Coulomb>
69.115

> <VdW>
0.266

> <VdW6>
-6.809

> <VdW12>
7.075

> <Bond>
0.212

> <Angle>
1.133

> <Pdih>
3.345

> <Idih>
0.000

> <Tether>
0.000

$$$$
VeraChem MOL file


 26 25  0  0  0  0  0  0  0  0999 V2000     
   21.4417   18.7079   25.5507 N   0  3  0  0  0  0  0  0  0  0  0  0
   22.0036   17.8689   25.3384 H   0  0  0  0  0  0  0  0  0  0  0  0
   20.4950   18.3598   25.7643 H   0  0  0  0  0  0  0  0  0  0  0  0
   21.3991   19.6262   24.3445 C   0  0  0  0  0  0  0  0  0  0  0  0
   22.4193   19.9700   24.1563 H   0  0  0  0  0  0  0  0  0  0  0  0
   20.7887   20.4950   24.6035 H   0  0  0  0  0  0  0  0  0  0  0  0
   20.8410   18.9620   23.0704 C   0  0  0  0  0  0  0  0  0  0  0  0
   20.9556   19.6666   22.2392 H   0  0  0  0  0  0  0  0  0  0  0  0
   21.4536   18.0865   22.8175 H   0  0  0  0  0  0  0  0  0  0  0  0
   19.3561   18.5418   23.2172 C   0  0  0  0  0  0  0  0  0  0  0  0
   18.7508   19.3906   23.5643 H   0  0  0  0  0  0  0  0  0  0  0  0
   19.2854   17.7765   24.0016 H   0  0  0  0  0  0  0  0  0  0  0  0
   18.7510   17.9554   21.9148 C   0  0  0  0  0  0  0  0  0  0  0  0
   19.5330   17.4683   21.3160 H   0  0  0  0  0  0  0  0  0  0  0  0
   18.0508   17.1554   22.1925 H   0  0  0  0  0  0  0  0  0  0  0  0
   17.9713   18.9753   21.0457 C   0  0  0  0  0  0  0  0  0  0  0  0
   17.1277   19.3809   21.6215 H   0  0  0  0  0  0  0  0  0  0  0  0
   17.5280   18.4403   20.1941 H   0  0  0  0  0  0  0  0  0  0  0  0
   18.8296   20.1401   20.5055 C   0  0  0  0  0  0  0  0  0  0  0  0
   19.7142   19.7672   19.9732 H   0  0  0  0  0  0  0  0  0  0  0  0
   19.1610   20.8008   21.3161 H   0  0  0  0  0  0  0  0  0  0  0  0
   18.2482   20.7509   19.8028 H   0  0  0  0  0  0  0  0  0  0  0  0
   22.0199   19.4503   26.7473 C   0  0  0  0  0  0  0  0  0  0  0  0
   21.3910   20.3146   26.9718 H   0  0  0  0  0  0  0  0  0  0  0  0
   22.0444   18.7784   27.6082 H   0  0  0  0  0  0  0  0  0  0  0  0
   23.0330   19.7816   26.5090 H   0  0  0  0  0  0  0  0  0  0  0  0
  1  2  1  0  0  0  0
  1  3  1  0  0  0  0
  1  4  1  0  0  0  0
  4  5  1  0  0  0  0
  4  6  1  0  0  0  0
  4  7  1  0  0  0  0
  7  8  1  0  0  0  0
  7  9  1  0  0  0  0
  7 10  1  0  0  0  0
 10 11  1  0  0  0  0
 10 12  1  0  0  0  0
 10 13  1  0  0  0  0
 13 14  1  0  0  0  0
 13 15  1  0  0  0  0
 13 16  1  0  0  0  0
 16 17  1  0  0  0  0
 16 18  1  0  0  0  0
 16 19  1  0  0  0  0
 19 20  1  0  0  0  0
 19 21  1  0  0  0  0
 19 22  1  0  0  0  0
  1 23  1  0  0  0  0
 23 24  1  0  0  0  0
 23 25  1  0  0  0  0
 23 26  1  0  0  0  0
M  END
> <VConfSearch Rank>
872

> <Conf_Id>
111

> <Delta U+W>
3.383

> <U+W>
25.225

> <U>
74.516

> <W>
-49.292

> <W(PB)>
-51.558

> <W(SA)>
2.266

> <Valence>
4.842

> <Coulomb>
69.333

> <VdW>
0.342

> <VdW6>
-7.369

> <VdW12>
7.711

> <Bond>
0.232

> <Angle>
1.153

> <Pdih>
3.457

> <Idih>
0.000

> <Tether>
0.000

$$$$
VeraChem MOL file


 26 25  0  0  0  0  0  0  0  0999 V2000     
   18.3471   18.5541   21.6633 N   0  3  0  0  0  0  0  0  0  0  0  0
   18.3104   19.1672   20.8342 H   0  0  0  0  0  0  0  0  0  0  0  0
   18.1836   19.1720   22.4723 H   0  0  0  0  0  0  0  0  0  0  0  0
   19.7140   17.9076   21.7738 C   0  0  0  0  0  0  0  0  0  0  0  0
   19.8519   17.2726   20.8950 H   0  0  0  0  0  0  0  0  0  0  0  0
   19.7126   17.2661   22.6581 H   0  0  0  0  0  0  0  0  0  0  0  0
   20.8770   18.9176   21.8629 C   0  0  0  0  0  0  0  0  0  0  0  0
   21.8237   18.3619   21.8918 H   0  0  0  0  0  0  0  0  0  0  0  0
   20.9027   19.5163   20.9427 H   0  0  0  0  0  0  0  0  0  0  0  0
   20.8034   19.8646   23.0875 C   0  0  0  0  0  0  0  0  0  0  0  0
   19.9025   20.4892   23.0245 H   0  0  0  0  0  0  0  0  0  0  0  0
   21.6562   20.5538   23.0353 H   0  0  0  0  0  0  0  0  0  0  0  0
   20.8268   19.1130   24.4430 C   0  0  0  0  0  0  0  0  0  0  0  0
   19.9878   18.4061   24.4869 H   0  0  0  0  0  0  0  0  0  0  0  0
   21.7425   18.5102   24.5164 H   0  0  0  0  0  0  0  0  0  0  0  0
   20.7275   20.0518   25.6700 C   0  0  0  0  0  0  0  0  0  0  0  0
   20.6338   19.4371   26.5763 H   0  0  0  0  0  0  0  0  0  0  0  0
   19.8070   20.6490   25.6083 H   0  0  0  0  0  0  0  0  0  0  0  0
   21.9462   20.9892   25.8303 C   0  0  0  0  0  0  0  0  0  0  0  0
   22.0110   21.7124   25.0081 H   0  0  0  0  0  0  0  0  0  0  0  0
   22.8829   20.4177   25.8613 H   0  0  0  0  0  0  0  0  0  0  0  0
   21.8709   21.5600   26.7649 H   0  0  0  0  0  0  0  0  0  0  0  0
   17.2704   17.4809   21.5841 C   0  0  0  0  0  0  0  0  0  0  0  0
   16.2919   17.9601   21.5061 H   0  0  0  0  0  0  0  0  0  0  0  0
   17.4477   16.8589   20.7040 H   0  0  0  0  0  0  0  0  0  0  0  0
   17.3092   16.8660   22.4859 H   0  0  0  0  0  0  0  0  0  0  0  0
  1  2  1  0  0  0  0
  1  3  1  0  0  0  0
  1  4  1  0  0  0  0
  4  5  1  0  0  0  0
  4  6  1  0  0  0  0
  4  7  1  0  0  0  0
  7  8  1  0  0  0  0
  7  9  1  0  0  0  0
  7 10  1  0  0  0  0
 10 11  1  0  0  0  0
 10 12  1  0  0  0  0
 10 13  1  0  0  0  0
 13 14  1  0  0  0  0
 13 15  1  0  0  0  0
 13 16  1  0  0  0  0
 16 17  1  0  0  0  0
 16 18  1  0  0  0  0
 16 19  1  0  0  0  0
 19 20  1  0  0  0  0
 19 21  1  0  0  0  0
 19 22  1  0  0  0  0
  1 23  1  0  0  0  0
 23 24  1  0  0  0  0
 23 25  1  0  0  0  0
 23 26  1  0  0  0  0
M  END
> <VConfSearch Rank>
873

> <Conf_Id>
126

> <Delta U+W>
1.519

> <U+W>
23.361

> <U>
72.579

> <W>
-49.218

> <W(PB)>
-51.496

> <W(SA)>
2.279

> <Valence>
2.678

> <Coulomb>
69.622

> <VdW>
0.279

> <VdW6>
-7.328

> <VdW12>
7.608

> <Bond>
0.212

> <Angle>
0.911

> <Pdih>
1.555

> <Idih>
0.000

> <Tether>
0.000

$$$$
VeraChem MOL file


 26 25  0  0  0  0  0  0  0  0999 V2000     
   19.4019   16.8851   23.8499 N   0  3  0  0  0  0  0  0  0  0  0  0
   20.2068   17.1094   23.2458 H   0  0  0  0  0  0  0  0  0  0  0  0
   18.6968   16.4622   23.2267 H   0  0  0  0  0  0  0  0  0  0  0  0
   18.8533   18.1537   24.4731 C   0  0  0  0  0  0  0  0  0  0  0  0
   19.6244   18.5689   25.1262 H   0  0  0  0  0  0  0  0  0  0  0  0
   17.9981   17.8746   25.0938 H   0  0  0  0  0  0  0  0  0  0  0  0
   18.4135   19.2154   23.4435 C   0  0  0  0  0  0  0  0  0  0  0  0
   17.5985   18.8057   22.8323 H   0  0  0  0  0  0  0  0  0  0  0  0
   17.9893   20.0731   23.9823 H   0  0  0  0  0  0  0  0  0  0  0  0
   19.5516   19.7087   22.5142 C   0  0  0  0  0  0  0  0  0  0  0  0
   19.1240   20.4332   21.8090 H   0  0  0  0  0  0  0  0  0  0  0  0
   19.9259   18.8751   21.9053 H   0  0  0  0  0  0  0  0  0  0  0  0
   20.7264   20.3655   23.2832 C   0  0  0  0  0  0  0  0  0  0  0  0
   20.3549   21.2169   23.8699 H   0  0  0  0  0  0  0  0  0  0  0  0
   21.1398   19.6497   24.0058 H   0  0  0  0  0  0  0  0  0  0  0  0
   21.8784   20.8369   22.3626 C   0  0  0  0  0  0  0  0  0  0  0  0
   22.2625   19.9868   21.7817 H   0  0  0  0  0  0  0  0  0  0  0  0
   22.7122   21.1806   22.9908 H   0  0  0  0  0  0  0  0  0  0  0  0
   21.4745   21.9813   21.4050 C   0  0  0  0  0  0  0  0  0  0  0  0
   21.0562   22.8314   21.9594 H   0  0  0  0  0  0  0  0  0  0  0  0
   20.7308   21.6499   20.6699 H   0  0  0  0  0  0  0  0  0  0  0  0
   22.3489   22.3422   20.8481 H   0  0  0  0  0  0  0  0  0  0  0  0
   19.8092   15.9051   24.9412 C   0  0  0  0  0  0  0  0  0  0  0  0
   20.5778   16.3637   25.5672 H   0  0  0  0  0  0  0  0  0  0  0  0
   18.9349   15.6602   25.5482 H   0  0  0  0  0  0  0  0  0  0  0  0
   20.2031   14.9974   24.4787 H   0  0  0  0  0  0  0  0  0  0  0  0
  1  2  1  0  0  0  0
  1  3  1  0  0  0  0
  1  4  1  0  0  0  0
  4  5  1  0  0  0  0
  4  6  1  0  0  0  0
  4  7  1  0  0  0  0
  7  8  1  0  0  0  0
  7  9  1  0  0  0  0
  7 10  1  0  0  0  0
 10 11  1  0  0  0  0
 10 12  1  0  0  0  0
 10 13  1  0  0  0  0
 13 14  1  0  0  0  0
 13 15  1  0  0  0  0
 13 16  1  0  0  0  0
 16 17  1  0  0  0  0
 16 18  1  0  0  0  0
 16 19  1  0  0  0  0
 19 20  1  0  0  0  0
 19 21  1  0  0  0  0
 19 22  1  0  0  0  0
  1 23  1  0  0  0  0
 23 24  1  0  0  0  0
 23 25  1  0  0  0  0
 23 26  1  0  0  0  0
M  END
> <VConfSearch Rank>
874

> <Conf_Id>
134

> <Delta U+W>
1.464

> <U+W>
23.306

> <U>
72.579

> <W>
-49.273

> <W(PB)>
-51.540

> <W(SA)>
2.267

> <Valence>
2.677

> <Coulomb>
69.622

> <VdW>
0.280

> <VdW6>
-7.328

> <VdW12>
7.608

> <Bond>
0.212

> <Angle>
0.911

> <Pdih>
1.555

> <Idih>
0.000

> <Tether>
0.000

$$$$
VeraChem MOL file


 26 25  0  0  0  0  0  0  0  0999 V2000     
   22.8999   19.3344   23.4902 N   0  3  0  0  0  0  0  0  0  0  0  0
   22.7237   19.7787   24.4047 H   0  0  0  0  0  0  0  0  0  0  0  0
   23.0674   20.1132   22.8342 H   0  0  0  0  0  0  0  0  0  0  0  0
   21.6881   18.5353   23.0546 C   0  0  0  0  0  0  0  0  0  0  0  0
   21.5410   17.7286   23.7771 H   0  0  0  0  0  0  0  0  0  0  0  0
   21.9122   18.0900   22.0820 H   0  0  0  0  0  0  0  0  0  0  0  0
   20.4054   19.3805   22.9541 C   0  0  0  0  0  0  0  0  0  0  0  0
   20.2007   19.8369   23.9308 H   0  0  0  0  0  0  0  0  0  0  0  0
   20.5623   20.1992   22.2393 H   0  0  0  0  0  0  0  0  0  0  0  0
   19.1992   18.5222   22.5060 C   0  0  0  0  0  0  0  0  0  0  0  0
   19.0163   17.7263   23.2403 H   0  0  0  0  0  0  0  0  0  0  0  0
   19.4538   18.0123   21.5665 H   0  0  0  0  0  0  0  0  0  0  0  0
   17.9027   19.3427   22.2802 C   0  0  0  0  0  0  0  0  0  0  0  0
   18.0705   20.0584   21.4635 H   0  0  0  0  0  0  0  0  0  0  0  0
   17.1138   18.6645   21.9269 H   0  0  0  0  0  0  0  0  0  0  0  0
   17.3816   20.1135   23.5202 C   0  0  0  0  0  0  0  0  0  0  0  0
   16.4666   20.6525   23.2373 H   0  0  0  0  0  0  0  0  0  0  0  0
   18.1033   20.8856   23.8187 H   0  0  0  0  0  0  0  0  0  0  0  0
   17.0671   19.1989   24.7258 C   0  0  0  0  0  0  0  0  0  0  0  0
   16.3609   18.4064   24.4464 H   0  0  0  0  0  0  0  0  0  0  0  0
   16.6154   19.7789   25.5410 H   0  0  0  0  0  0  0  0  0  0  0  0
   17.9754   18.7271   25.1207 H   0  0  0  0  0  0  0  0  0  0  0  0
   24.1199   18.4266   23.5638 C   0  0  0  0  0  0  0  0  0  0  0  0
   24.3060   17.9945   22.5781 H   0  0  0  0  0  0  0  0  0  0  0  0
   24.9852   19.0143   23.8784 H   0  0  0  0  0  0  0  0  0  0  0  0
   23.9320   17.6304   24.2875 H   0  0  0  0  0  0  0  0  0  0  0  0
  1  2  1  0  0  0  0
  1  3  1  0  0  0  0
  1  4  1  0  0  0  0
  4  5  1  0  0  0  0
  4  6  1  0  0  0  0
  4  7  1  0  0  0  0
  7  8  1  0  0  0  0
  7  9  1  0  0  0  0
  7 10  1  0  0  0  0
 10 11  1  0  0  0  0
 10 12  1  0  0  0  0
 10 13  1  0  0  0  0
 13 14  1  0  0  0  0
 13 15  1  0  0  0  0
 13 16  1  0  0  0  0
 16 17  1  0  0  0  0
 16 18  1  0  0  0  0
 16 19  1  0  0  0  0
 19 20  1  0  0  0  0
 19 21  1  0  0  0  0
 19 22  1  0  0  0  0
  1 23  1  0  0  0  0
 23 24  1  0  0  0  0
 23 25  1  0  0  0  0
 23 26  1  0  0  0  0
M  END
> <VConfSearch Rank>
875

> <Conf_Id>
30

> <Delta U+W>
0.910

> <U+W>
22.752

> <U>
71.870

> <W>
-49.118

> <W(PB)>
-51.409

> <W(SA)>
2.290

> <Valence>
2.682

> <Coulomb>
68.933

> <VdW>
0.255

> <VdW6>
-6.833

> <VdW12>
7.088

> <Bond>
0.205

> <Angle>
1.003

> <Pdih>
1.473

> <Idih>
0.000

> <Tether>
0.000

$$$$
VeraChem MOL file


 26 25  0  0  0  0  0  0  0  0999 V2000     
   18.5655   20.2193   21.1992 N   0  3  0  0  0  0  0  0  0  0  0  0
   19.0412   19.7922   20.3892 H   0  0  0  0  0  0  0  0  0  0  0  0
   19.1016   21.0747   21.4129 H   0  0  0  0  0  0  0  0  0  0  0  0
   18.5969   19.2730   22.3826 C   0  0  0  0  0  0  0  0  0  0  0  0
   18.0272   18.3802   22.1129 H   0  0  0  0  0  0  0  0  0  0  0  0
   18.0922   19.7642   23.2183 H   0  0  0  0  0  0  0  0  0  0  0  0
   20.0221   18.8707   22.8028 C   0  0  0  0  0  0  0  0  0  0  0  0
   20.5313   18.3919   21.9559 H   0  0  0  0  0  0  0  0  0  0  0  0
   20.5897   19.7758   23.0534 H   0  0  0  0  0  0  0  0  0  0  0  0
   20.0015   17.9054   24.0113 C   0  0  0  0  0  0  0  0  0  0  0  0
   19.3645   17.0435   23.7683 H   0  0  0  0  0  0  0  0  0  0  0  0
   19.5275   18.3969   24.8713 H   0  0  0  0  0  0  0  0  0  0  0  0
   21.4047   17.3784   24.4093 C   0  0  0  0  0  0  0  0  0  0  0  0
   21.2922   16.6730   25.2441 H   0  0  0  0  0  0  0  0  0  0  0  0
   21.8163   16.7930   23.5756 H   0  0  0  0  0  0  0  0  0  0  0  0
   22.4327   18.4676   24.8097 C   0  0  0  0  0  0  0  0  0  0  0  0
   22.6559   19.1139   23.9503 H   0  0  0  0  0  0  0  0  0  0  0  0
   23.3806   17.9751   25.0680 H   0  0  0  0  0  0  0  0  0  0  0  0
   21.9787   19.3313   26.0084 C   0  0  0  0  0  0  0  0  0  0  0  0
   21.0979   19.9357   25.7582 H   0  0  0  0  0  0  0  0  0  0  0  0
   22.7775   20.0212   26.3097 H   0  0  0  0  0  0  0  0  0  0  0  0
   21.7315   18.7048   26.8751 H   0  0  0  0  0  0  0  0  0  0  0  0
   17.1244   20.5654   20.8508 C   0  0  0  0  0  0  0  0  0  0  0  0
   17.1160   21.2471   19.9974 H   0  0  0  0  0  0  0  0  0  0  0  0
   16.5865   19.6494   20.5966 H   0  0  0  0  0  0  0  0  0  0  0  0
   16.6523   21.0453   21.7109 H   0  0  0  0  0  0  0  0  0  0  0  0
  1  2  1  0  0  0  0
  1  3  1  0  0  0  0
  1  4  1  0  0  0  0
  4  5  1  0  0  0  0
  4  6  1  0  0  0  0
  4  7  1  0  0  0  0
  7  8  1  0  0  0  0
  7  9  1  0  0  0  0
  7 10  1  0  0  0  0
 10 11  1  0  0  0  0
 10 12  1  0  0  0  0
 10 13  1  0  0  0  0
 13 14  1  0  0  0  0
 13 15  1  0  0  0  0
 13 16  1  0  0  0  0
 16 17  1  0  0  0  0
 16 18  1  0  0  0  0
 16 19  1  0  0  0  0
 19 20  1  0  0  0  0
 19 21  1  0  0  0  0
 19 22  1  0  0  0  0
  1 23  1  0  0  0  0
 23 24  1  0  0  0  0
 23 25  1  0  0  0  0
 23 26  1  0  0  0  0
M  END
> <VConfSearch Rank>
876

> <Conf_Id>
29

> <Delta U+W>
0.886

> <U+W>
22.729

> <U>
71.870

> <W>
-49.141

> <W(PB)>
-51.404

> <W(SA)>
2.262

> <Valence>
2.682

> <Coulomb>
68.933

> <VdW>
0.255

> <VdW6>
-6.833

> <VdW12>
7.088

> <Bond>
0.205

> <Angle>
1.003

> <Pdih>
1.473

> <Idih>
0.000

> <Tether>
0.000

$$$$
VeraChem MOL file


 26 25  0  0  0  0  0  0  0  0999 V2000     
   20.2810   20.2656   20.9646 N   0  3  0  0  0  0  0  0  0  0  0  0
   19.6189   21.0301   20.7597 H   0  0  0  0  0  0  0  0  0  0  0  0
   19.8502   19.4156   20.5691 H   0  0  0  0  0  0  0  0  0  0  0  0
   20.4580   20.1147   22.4619 C   0  0  0  0  0  0  0  0  0  0  0  0
   20.9034   21.0373   22.8423 H   0  0  0  0  0  0  0  0  0  0  0  0
   21.1610   19.2960   22.6336 H   0  0  0  0  0  0  0  0  0  0  0  0
   19.1391   19.8310   23.2059 C   0  0  0  0  0  0  0  0  0  0  0  0
   18.4276   20.6411   22.9981 H   0  0  0  0  0  0  0  0  0  0  0  0
   18.6834   18.9127   22.8142 H   0  0  0  0  0  0  0  0  0  0  0  0
   19.3312   19.7148   24.7384 C   0  0  0  0  0  0  0  0  0  0  0  0
   18.3563   19.5320   25.2097 H   0  0  0  0  0  0  0  0  0  0  0  0
   19.6706   20.6845   25.1280 H   0  0  0  0  0  0  0  0  0  0  0  0
   20.3381   18.6214   25.1878 C   0  0  0  0  0  0  0  0  0  0  0  0
   21.3480   18.8964   24.8550 H   0  0  0  0  0  0  0  0  0  0  0  0
   20.3816   18.6151   26.2857 H   0  0  0  0  0  0  0  0  0  0  0  0
   20.0198   17.1878   24.6920 C   0  0  0  0  0  0  0  0  0  0  0  0
   20.8016   16.5085   25.0597 H   0  0  0  0  0  0  0  0  0  0  0  0
   20.0751   17.1436   23.5960 H   0  0  0  0  0  0  0  0  0  0  0  0
   18.6445   16.6661   25.1666 C   0  0  0  0  0  0  0  0  0  0  0  0
   18.5037   15.6208   24.8627 H   0  0  0  0  0  0  0  0  0  0  0  0
   17.8217   17.2493   24.7348 H   0  0  0  0  0  0  0  0  0  0  0  0
   18.5612   16.7118   26.2602 H   0  0  0  0  0  0  0  0  0  0  0  0
   21.6281   20.5360   20.3089 C   0  0  0  0  0  0  0  0  0  0  0  0
   21.4868   20.6430   19.2310 H   0  0  0  0  0  0  0  0  0  0  0  0
   22.0488   21.4567   20.7189 H   0  0  0  0  0  0  0  0  0  0  0  0
   22.3005   19.6994   20.5115 H   0  0  0  0  0  0  0  0  0  0  0  0
  1  2  1  0  0  0  0
  1  3  1  0  0  0  0
  1  4  1  0  0  0  0
  4  5  1  0  0  0  0
  4  6  1  0  0  0  0
  4  7  1  0  0  0  0
  7  8  1  0  0  0  0
  7  9  1  0  0  0  0
  7 10  1  0  0  0  0
 10 11  1  0  0  0  0
 10 12  1  0  0  0  0
 10 13  1  0  0  0  0
 13 14  1  0  0  0  0
 13 15  1  0  0  0  0
 13 16  1  0  0  0  0
 16 17  1  0  0  0  0
 16 18  1  0  0  0  0
 16 19  1  0  0  0  0
 19 20  1  0  0  0  0
 19 21  1  0  0  0  0
 19 22  1  0  0  0  0
  1 23  1  0  0  0  0
 23 24  1  0  0  0  0
 23 25  1  0  0  0  0
 23 26  1  0  0  0  0
M  END
> <VConfSearch Rank>
877

> <Conf_Id>
82

> <Delta U+W>
1.026

> <U+W>
22.868

> <U>
72.455

> <W>
-49.586

> <W(PB)>
-51.821

> <W(SA)>
2.234

> <Valence>
2.908

> <Coulomb>
69.435

> <VdW>
0.112

> <VdW6>
-7.765

> <VdW12>
7.877

> <Bond>
0.233

> <Angle>
1.170

> <Pdih>
1.506

> <Idih>
0.000

> <Tether>
0.000

$$$$
VeraChem MOL file


 26 25  0  0  0  0  0  0  0  0999 V2000     
   19.5272   19.0589   25.8750 N   0  3  0  0  0  0  0  0  0  0  0  0
   20.4946   18.7253   26.0069 H   0  0  0  0  0  0  0  0  0  0  0  0
   18.9238   18.2856   26.1953 H   0  0  0  0  0  0  0  0  0  0  0  0
   19.2694   19.3508   24.4106 C   0  0  0  0  0  0  0  0  0  0  0  0
   19.9284   20.1699   24.1129 H   0  0  0  0  0  0  0  0  0  0  0  0
   18.2344   19.6878   24.3123 H   0  0  0  0  0  0  0  0  0  0  0  0
   19.5073   18.1345   23.4956 C   0  0  0  0  0  0  0  0  0  0  0  0
   20.5422   17.7860   23.6048 H   0  0  0  0  0  0  0  0  0  0  0  0
   18.8666   17.3059   23.8251 H   0  0  0  0  0  0  0  0  0  0  0  0
   19.2054   18.4388   22.0072 C   0  0  0  0  0  0  0  0  0  0  0  0
   18.1354   18.6649   21.9012 H   0  0  0  0  0  0  0  0  0  0  0  0
   19.3756   17.5309   21.4133 H   0  0  0  0  0  0  0  0  0  0  0  0
   20.0214   19.6142   21.4040 C   0  0  0  0  0  0  0  0  0  0  0  0
   19.7426   19.7284   20.3474 H   0  0  0  0  0  0  0  0  0  0  0  0
   19.7232   20.5529   21.8901 H   0  0  0  0  0  0  0  0  0  0  0  0
   21.5613   19.4664   21.5012 C   0  0  0  0  0  0  0  0  0  0  0  0
   21.8765   19.4569   22.5532 H   0  0  0  0  0  0  0  0  0  0  0  0
   22.0272   20.3567   21.0563 H   0  0  0  0  0  0  0  0  0  0  0  0
   22.1033   18.2099   20.7826 C   0  0  0  0  0  0  0  0  0  0  0  0
   21.7506   17.2883   21.2619 H   0  0  0  0  0  0  0  0  0  0  0  0
   23.2006   18.1961   20.8069 H   0  0  0  0  0  0  0  0  0  0  0  0
   21.7906   18.1916   19.7305 H   0  0  0  0  0  0  0  0  0  0  0  0
   19.2763   20.3107   26.7042 C   0  0  0  0  0  0  0  0  0  0  0  0
   18.2385   20.6254   26.5745 H   0  0  0  0  0  0  0  0  0  0  0  0
   19.4651   20.0870   27.7566 H   0  0  0  0  0  0  0  0  0  0  0  0
   19.9483   21.1040   26.3695 H   0  0  0  0  0  0  0  0  0  0  0  0
  1  2  1  0  0  0  0
  1  3  1  0  0  0  0
  1  4  1  0  0  0  0
  4  5  1  0  0  0  0
  4  6  1  0  0  0  0
  4  7  1  0  0  0  0
  7  8  1  0  0  0  0
  7  9  1  0  0  0  0
  7 10  1  0  0  0  0
 10 11  1  0  0  0  0
 10 12  1  0  0  0  0
 10 13  1  0  0  0  0
 13 14  1  0  0  0  0
 13 15  1  0  0  0  0
 13 16  1  0  0  0  0
 16 17  1  0  0  0  0
 16 18  1  0  0  0  0
 16 19  1  0  0  0  0
 19 20  1  0  0  0  0
 19 21  1  0  0  0  0
 19 22  1  0  0  0  0
  1 23  1  0  0  0  0
 23 24  1  0  0  0  0
 23 25  1  0  0  0  0
 23 26  1  0  0  0  0
M  END
> <VConfSearch Rank>
878

> <Conf_Id>
71

> <Delta U+W>
1.096

> <U+W>
22.938

> <U>
72.455

> <W>
-49.517

> <W(PB)>
-51.795

> <W(SA)>
2.278

> <Valence>
2.908

> <Coulomb>
69.435

> <VdW>
0.112

> <VdW6>
-7.766

> <VdW12>
7.877

> <Bond>
0.233

> <Angle>
1.170

> <Pdih>
1.506

> <Idih>
0.000

> <Tether>
0.000

$$$$
VeraChem MOL file


 26 25  0  0  0  0  0  0  0  0999 V2000     
   17.5967   18.7163   23.2569 N   0  3  0  0  0  0  0  0  0  0  0  0
   18.1536   18.8777   22.4046 H   0  0  0  0  0  0  0  0  0  0  0  0
   16.7430   19.2835   23.1335 H   0  0  0  0  0  0  0  0  0  0  0  0
   18.3616   19.2040   24.4770 C   0  0  0  0  0  0  0  0  0  0  0  0
   17.7478   18.9983   25.3576 H   0  0  0  0  0  0  0  0  0  0  0  0
   18.4631   20.2882   24.3869 H   0  0  0  0  0  0  0  0  0  0  0  0
   19.7627   18.5792   24.6663 C   0  0  0  0  0  0  0  0  0  0  0  0
   20.2192   19.0094   25.5675 H   0  0  0  0  0  0  0  0  0  0  0  0
   19.6575   17.5049   24.8657 H   0  0  0  0  0  0  0  0  0  0  0  0
   20.7173   18.7843   23.4630 C   0  0  0  0  0  0  0  0  0  0  0  0
   20.3072   18.2885   22.5731 H   0  0  0  0  0  0  0  0  0  0  0  0
   21.6626   18.2738   23.6882 H   0  0  0  0  0  0  0  0  0  0  0  0
   20.9959   20.2771   23.1522 C   0  0  0  0  0  0  0  0  0  0  0  0
   20.0486   20.7961   22.9562 H   0  0  0  0  0  0  0  0  0  0  0  0
   21.4368   20.7625   24.0339 H   0  0  0  0  0  0  0  0  0  0  0  0
   21.9217   20.4894   21.9297 C   0  0  0  0  0  0  0  0  0  0  0  0
   21.9741   21.5652   21.7109 H   0  0  0  0  0  0  0  0  0  0  0  0
   21.4794   20.0172   21.0413 H   0  0  0  0  0  0  0  0  0  0  0  0
   23.3569   19.9560   22.1422 C   0  0  0  0  0  0  0  0  0  0  0  0
   23.3719   18.8635   22.2394 H   0  0  0  0  0  0  0  0  0  0  0  0
   23.8098   20.3885   23.0438 H   0  0  0  0  0  0  0  0  0  0  0  0
   23.9944   20.2187   21.2881 H   0  0  0  0  0  0  0  0  0  0  0  0
   17.2270   17.2436   23.3906 C   0  0  0  0  0  0  0  0  0  0  0  0
   16.6542   16.9376   22.5124 H   0  0  0  0  0  0  0  0  0  0  0  0
   18.1392   16.6475   23.4602 H   0  0  0  0  0  0  0  0  0  0  0  0
   16.6240   17.1055   24.2907 H   0  0  0  0  0  0  0  0  0  0  0  0
  1  2  1  0  0  0  0
  1  3  1  0  0  0  0
  1  4  1  0  0  0  0
  4  5  1  0  0  0  0
  4  6  1  0  0  0  0
  4  7  1  0  0  0  0
  7  8  1  0  0  0  0
  7  9  1  0  0  0  0
  7 10  1  0  0  0  0
 10 11  1  0  0  0  0
 10 12  1  0  0  0  0
 10 13  1  0  0  0  0
 13 14  1  0  0  0  0
 13 15  1  0  0  0  0
 13 16  1  0  0  0  0
 16 17  1  0  0  0  0
 16 18  1  0  0  0  0
 16 19  1  0  0  0  0
 19 20  1  0  0  0  0
 19 21  1  0  0  0  0
 19 22  1  0  0  0  0
  1 23  1  0  0  0  0
 23 24  1  0  0  0  0
 23 25  1  0  0  0  0
 23 26  1  0  0  0  0
M  END
> <VConfSearch Rank>
879

> <Conf_Id>
84

> <Delta U+W>
1.456

> <U+W>
23.298

> <U>
73.042

> <W>
-49.744

> <W(PB)>
-51.966

> <W(SA)>
2.222

> <Valence>
2.938

> <Coulomb>
69.625

> <VdW>
0.478

> <VdW6>
-8.182

> <VdW12>
8.660

> <Bond>
0.253

> <Angle>
1.038

> <Pdih>
1.647

> <Idih>
0.000

> <Tether>
0.000

$$$$
VeraChem MOL file


 26 25  0  0  0  0  0  0  0  0999 V2000     
   22.3271   18.9545   23.2250 N   0  3  0  0  0  0  0  0  0  0  0  0
   21.7569   18.9531   24.0841 H   0  0  0  0  0  0  0  0  0  0  0  0
   22.9607   19.7640   23.3141 H   0  0  0  0  0  0  0  0  0  0  0  0
   21.4343   19.1223   22.0112 C   0  0  0  0  0  0  0  0  0  0  0  0
   20.7833   18.2471   21.9486 H   0  0  0  0  0  0  0  0  0  0  0  0
   22.0762   19.1314   21.1266 H   0  0  0  0  0  0  0  0  0  0  0  0
   20.5802   20.4068   22.0374 C   0  0  0  0  0  0  0  0  0  0  0  0
   21.2451   21.2806   22.0471 H   0  0  0  0  0  0  0  0  0  0  0  0
   20.0091   20.4680   21.1015 H   0  0  0  0  0  0  0  0  0  0  0  0
   19.6038   20.4919   23.2377 C   0  0  0  0  0  0  0  0  0  0  0  0
   19.0542   21.4413   23.1735 H   0  0  0  0  0  0  0  0  0  0  0  0
   20.1694   20.5315   24.1782 H   0  0  0  0  0  0  0  0  0  0  0  0
   18.5914   19.3221   23.2845 C   0  0  0  0  0  0  0  0  0  0  0  0
   18.0448   19.2717   22.3326 H   0  0  0  0  0  0  0  0  0  0  0  0
   19.1232   18.3679   23.3965 H   0  0  0  0  0  0  0  0  0  0  0  0
   17.5856   19.4795   24.4467 C   0  0  0  0  0  0  0  0  0  0  0  0
   17.0392   20.4270   24.3394 H   0  0  0  0  0  0  0  0  0  0  0  0
   18.1269   19.5325   25.4017 H   0  0  0  0  0  0  0  0  0  0  0  0
   16.5782   18.3108   24.4937 C   0  0  0  0  0  0  0  0  0  0  0  0
   15.9971   18.2527   23.5642 H   0  0  0  0  0  0  0  0  0  0  0  0
   15.8724   18.4406   25.3244 H   0  0  0  0  0  0  0  0  0  0  0  0
   17.0925   17.3513   24.6358 H   0  0  0  0  0  0  0  0  0  0  0  0
   23.1225   17.6618   23.1094 C   0  0  0  0  0  0  0  0  0  0  0  0
   23.7402   17.6997   22.2094 H   0  0  0  0  0  0  0  0  0  0  0  0
   23.7599   17.5533   23.9898 H   0  0  0  0  0  0  0  0  0  0  0  0
   22.4309   16.8187   23.0483 H   0  0  0  0  0  0  0  0  0  0  0  0
  1  2  1  0  0  0  0
  1  3  1  0  0  0  0
  1  4  1  0  0  0  0
  4  5  1  0  0  0  0
  4  6  1  0  0  0  0
  4  7  1  0  0  0  0
  7  8  1  0  0  0  0
  7  9  1  0  0  0  0
  7 10  1  0  0  0  0
 10 11  1  0  0  0  0
 10 12  1  0  0  0  0
 10 13  1  0  0  0  0
 13 14  1  0  0  0  0
 13 15  1  0  0  0  0
 13 16  1  0  0  0  0
 16 17  1  0  0  0  0
 16 18  1  0  0  0  0
 16 19  1  0  0  0  0
 19 20  1  0  0  0  0
 19 21  1  0  0  0  0
 19 22  1  0  0  0  0
  1 23  1  0  0  0  0
 23 24  1  0  0  0  0
 23 25  1  0  0  0  0
 23 26  1  0  0  0  0
M  END
> <VConfSearch Rank>
880

> <Conf_Id>
73

> <Delta U+W>
0.884

> <U+W>
22.726

> <U>
71.905

> <W>
-49.179

> <W(PB)>
-51.494

> <W(SA)>
2.315

> <Valence>
2.125

> <Coulomb>
69.686

> <VdW>
0.093

> <VdW6>
-6.766

> <VdW12>
6.859

> <Bond>
0.169

> <Angle>
0.621

> <Pdih>
1.336

> <Idih>
0.000

> <Tether>
0.000

$$$$
VeraChem MOL file


 26 25  0  0  0  0  0  0  0  0999 V2000     
   19.6114   16.8652   25.6015 N   0  3  0  0  0  0  0  0  0  0  0  0
   20.0250   17.4268   26.3620 H   0  0  0  0  0  0  0  0  0  0  0  0
   20.3640   16.2336   25.2860 H   0  0  0  0  0  0  0  0  0  0  0  0
   19.1740   17.7665   24.4642 C   0  0  0  0  0  0  0  0  0  0  0  0
   18.3851   18.4225   24.8408 H   0  0  0  0  0  0  0  0  0  0  0  0
   18.7509   17.1345   23.6793 H   0  0  0  0  0  0  0  0  0  0  0  0
   20.3204   18.6149   23.8845 C   0  0  0  0  0  0  0  0  0  0  0  0
   20.7533   19.2360   24.6800 H   0  0  0  0  0  0  0  0  0  0  0  0
   21.1179   17.9523   23.5225 H   0  0  0  0  0  0  0  0  0  0  0  0
   19.8286   19.5161   22.7302 C   0  0  0  0  0  0  0  0  0  0  0  0
   19.0272   20.1737   23.0950 H   0  0  0  0  0  0  0  0  0  0  0  0
   19.3911   18.8915   21.9388 H   0  0  0  0  0  0  0  0  0  0  0  0
   20.9717   20.3729   22.1398 C   0  0  0  0  0  0  0  0  0  0  0  0
   21.4092   20.9977   22.9309 H   0  0  0  0  0  0  0  0  0  0  0  0
   21.7732   19.7156   21.7749 H   0  0  0  0  0  0  0  0  0  0  0  0
   20.4796   21.2742   20.9853 C   0  0  0  0  0  0  0  0  0  0  0  0
   19.6793   21.9355   21.3459 H   0  0  0  0  0  0  0  0  0  0  0  0
   20.0433   20.6536   20.1900 H   0  0  0  0  0  0  0  0  0  0  0  0
   21.6237   22.1283   20.3983 C   0  0  0  0  0  0  0  0  0  0  0  0
   21.2549   22.7609   19.5805 H   0  0  0  0  0  0  0  0  0  0  0  0
   22.4249   21.4936   19.9978 H   0  0  0  0  0  0  0  0  0  0  0  0
   22.0581   22.7855   21.1628 H   0  0  0  0  0  0  0  0  0  0  0  0
   18.4225   16.0645   26.1147 C   0  0  0  0  0  0  0  0  0  0  0  0
   18.0229   15.4540   25.3020 H   0  0  0  0  0  0  0  0  0  0  0  0
   18.7511   15.4200   26.9330 H   0  0  0  0  0  0  0  0  0  0  0  0
   17.6538   16.7527   26.4731 H   0  0  0  0  0  0  0  0  0  0  0  0
  1  2  1  0  0  0  0
  1  3  1  0  0  0  0
  1  4  1  0  0  0  0
  4  5  1  0  0  0  0
  4  6  1  0  0  0  0
  4  7  1  0  0  0  0
  7  8  1  0  0  0  0
  7  9  1  0  0  0  0
  7 10  1  0  0  0  0
 10 11  1  0  0  0  0
 10 12  1  0  0  0  0
 10 13  1  0  0  0  0
 13 14  1  0  0  0  0
 13 15  1  0  0  0  0
 13 16  1  0  0  0  0
 16 17  1  0  0  0  0
 16 18  1  0  0  0  0
 16 19  1  0  0  0  0
 19 20  1  0  0  0  0
 19 21  1  0  0  0  0
 19 22  1  0  0  0  0
  1 23  1  0  0  0  0
 23 24  1  0  0  0  0
 23 25  1  0  0  0  0
 23 26  1  0  0  0  0
M  END
> <VConfSearch Rank>
881

> <Conf_Id>
11

> <Delta U+W>
0.000

> <U+W>
21.842

> <U>
70.357

> <W>
-48.515

> <W(PB)>
-50.856

> <W(SA)>
2.341

> <Valence>
1.714

> <Coulomb>
68.480

> <VdW>
0.163

> <VdW6>
-5.268

> <VdW12>
5.431

> <Bond>
0.126

> <Angle>
0.350

> <Pdih>
1.238

> <Idih>
0.000

> <Tether>
0.000

$$$$
VeraChem MOL file


 26 25  0  0  0  0  0  0  0  0999 V2000     
   19.6265   21.0447   25.9673 N   0  3  0  0  0  0  0  0  0  0  0  0
   18.9816   21.7789   26.3007 H   0  0  0  0  0  0  0  0  0  0  0  0
   20.5304   21.5244   25.8357 H   0  0  0  0  0  0  0  0  0  0  0  0
   19.1269   20.4926   24.6427 C   0  0  0  0  0  0  0  0  0  0  0  0
   18.9066   21.3469   23.9975 H   0  0  0  0  0  0  0  0  0  0  0  0
   18.1913   19.9601   24.8313 H   0  0  0  0  0  0  0  0  0  0  0  0
   20.1230   19.5630   23.9199 C   0  0  0  0  0  0  0  0  0  0  0  0
   21.0761   20.0897   23.7792 H   0  0  0  0  0  0  0  0  0  0  0  0
   20.3299   18.6837   24.5436 H   0  0  0  0  0  0  0  0  0  0  0  0
   19.5746   19.1053   22.5502 C   0  0  0  0  0  0  0  0  0  0  0  0
   19.3657   19.9857   21.9266 H   0  0  0  0  0  0  0  0  0  0  0  0
   18.6177   18.5844   22.6948 H   0  0  0  0  0  0  0  0  0  0  0  0
   20.5643   18.1736   21.8143 C   0  0  0  0  0  0  0  0  0  0  0  0
   21.5212   18.6942   21.6699 H   0  0  0  0  0  0  0  0  0  0  0  0
   20.7731   17.2930   22.4376 H   0  0  0  0  0  0  0  0  0  0  0  0
   20.0155   17.7160   20.4444 C   0  0  0  0  0  0  0  0  0  0  0  0
   19.8074   18.5934   19.8160 H   0  0  0  0  0  0  0  0  0  0  0  0
   19.0593   17.1924   20.5837 H   0  0  0  0  0  0  0  0  0  0  0  0
   21.0065   16.7858   19.7125 C   0  0  0  0  0  0  0  0  0  0  0  0
   20.5993   16.4717   18.7427 H   0  0  0  0  0  0  0  0  0  0  0  0
   21.2081   15.8817   20.3016 H   0  0  0  0  0  0  0  0  0  0  0  0
   21.9621   17.2937   19.5279 H   0  0  0  0  0  0  0  0  0  0  0  0
   19.7440   19.9442   27.0159 C   0  0  0  0  0  0  0  0  0  0  0  0
   20.4764   19.2054   26.6847 H   0  0  0  0  0  0  0  0  0  0  0  0
   20.0690   20.3848   27.9611 H   0  0  0  0  0  0  0  0  0  0  0  0
   18.7699   19.4680   27.1469 H   0  0  0  0  0  0  0  0  0  0  0  0
  1  2  1  0  0  0  0
  1  3  1  0  0  0  0
  1  4  1  0  0  0  0
  4  5  1  0  0  0  0
  4  6  1  0  0  0  0
  4  7  1  0  0  0  0
  7  8  1  0  0  0  0
  7  9  1  0  0  0  0
  7 10  1  0  0  0  0
 10 11  1  0  0  0  0
 10 12  1  0  0  0  0
 10 13  1  0  0  0  0
 13 14  1  0  0  0  0
 13 15  1  0  0  0  0
 13 16  1  0  0  0  0
 16 17  1  0  0  0  0
 16 18  1  0  0  0  0
 16 19  1  0  0  0  0
 19 20  1  0  0  0  0
 19 21  1  0  0  0  0
 19 22  1  0  0  0  0
  1 23  1  0  0  0  0
 23 24  1  0  0  0  0
 23 25  1  0  0  0  0
 23 26  1  0  0  0  0
M  END
> <VConfSearch Rank>
882

> <Conf_Id>
102

> <Delta U+W>
0.121

> <U+W>
21.963

> <U>
70.745

> <W>
-48.782

> <W(PB)>
-51.111

> <W(SA)>
2.329

> <Valence>
1.993

> <Coulomb>
68.323

> <VdW>
0.429

> <VdW6>
-5.973

> <VdW12>
6.402

> <Bond>
0.161

> <Angle>
0.472

> <Pdih>
1.360

> <Idih>
0.000

> <Tether>
0.000

$$$$
VeraChem MOL file


 26 25  0  0  0  0  0  0  0  0999 V2000     
   17.9443   21.5895   22.6691 N   0  3  0  0  0  0  0  0  0  0  0  0
   17.8545   21.3793   21.6630 H   0  0  0  0  0  0  0  0  0  0  0  0
   17.9277   22.6202   22.7281 H   0  0  0  0  0  0  0  0  0  0  0  0
   19.2714   21.0715   23.1979 C   0  0  0  0  0  0  0  0  0  0  0  0
   19.3102   21.2780   24.2704 H   0  0  0  0  0  0  0  0  0  0  0  0
   20.0620   21.6496   22.7125 H   0  0  0  0  0  0  0  0  0  0  0  0
   19.5202   19.5709   22.9433 C   0  0  0  0  0  0  0  0  0  0  0  0
   18.7508   18.9755   23.4516 H   0  0  0  0  0  0  0  0  0  0  0  0
   19.4302   19.3640   21.8687 H   0  0  0  0  0  0  0  0  0  0  0  0
   20.9175   19.1390   23.4408 C   0  0  0  0  0  0  0  0  0  0  0  0
   21.0059   19.3536   24.5150 H   0  0  0  0  0  0  0  0  0  0  0  0
   21.6878   19.7364   22.9332 H   0  0  0  0  0  0  0  0  0  0  0  0
   21.1804   17.6365   23.1904 C   0  0  0  0  0  0  0  0  0  0  0  0
   20.4105   17.0390   23.6981 H   0  0  0  0  0  0  0  0  0  0  0  0
   21.0917   17.4217   22.1164 H   0  0  0  0  0  0  0  0  0  0  0  0
   22.5780   17.2049   23.6880 C   0  0  0  0  0  0  0  0  0  0  0  0
   22.6709   17.4156   24.7626 H   0  0  0  0  0  0  0  0  0  0  0  0
   23.3520   17.7980   23.1810 H   0  0  0  0  0  0  0  0  0  0  0  0
   22.8367   15.7040   23.4365 C   0  0  0  0  0  0  0  0  0  0  0  0
   22.0981   15.0828   23.9598 H   0  0  0  0  0  0  0  0  0  0  0  0
   23.8333   15.4168   23.7962 H   0  0  0  0  0  0  0  0  0  0  0  0
   22.7845   15.4681   22.3656 H   0  0  0  0  0  0  0  0  0  0  0  0
   16.7724   21.0077   23.4517 C   0  0  0  0  0  0  0  0  0  0  0  0
   16.8848   21.2617   24.5079 H   0  0  0  0  0  0  0  0  0  0  0  0
   15.8414   21.4309   23.0679 H   0  0  0  0  0  0  0  0  0  0  0  0
   16.7593   19.9227   23.3305 H   0  0  0  0  0  0  0  0  0  0  0  0
  1  2  1  0  0  0  0
  1  3  1  0  0  0  0
  1  4  1  0  0  0  0
  4  5  1  0  0  0  0
  4  6  1  0  0  0  0
  4  7  1  0  0  0  0
  7  8  1  0  0  0  0
  7  9  1  0  0  0  0
  7 10  1  0  0  0  0
 10 11  1  0  0  0  0
 10 12  1  0  0  0  0
 10 13  1  0  0  0  0
 13 14  1  0  0  0  0
 13 15  1  0  0  0  0
 13 16  1  0  0  0  0
 16 17  1  0  0  0  0
 16 18  1  0  0  0  0
 16 19  1  0  0  0  0
 19 20  1  0  0  0  0
 19 21  1  0  0  0  0
 19 22  1  0  0  0  0
  1 23  1  0  0  0  0
 23 24  1  0  0  0  0
 23 25  1  0  0  0  0
 23 26  1  0  0  0  0
M  END
> <VConfSearch Rank>
883

> <Conf_Id>
37

> <Delta U+W>
0.125

> <U+W>
21.967

> <U>
70.745

> <W>
-48.778

> <W(PB)>
-51.115

> <W(SA)>
2.337

> <Valence>
1.993

> <Coulomb>
68.323

> <VdW>
0.429

> <VdW6>
-5.973

> <VdW12>
6.403

> <Bond>
0.161

> <Angle>
0.472

> <Pdih>
1.360

> <Idih>
0.000

> <Tether>
0.000

$$$$
VeraChem MOL file


 26 25  0  0  0  0  0  0  0  0999 V2000     
   22.7546   18.5409   24.5202 N   0  3  0  0  0  0  0  0  0  0  0  0
   22.6539   18.0148   25.4022 H   0  0  0  0  0  0  0  0  0  0  0  0
   22.9607   19.5119   24.8019 H   0  0  0  0  0  0  0  0  0  0  0  0
   21.4627   18.4887   23.7298 C   0  0  0  0  0  0  0  0  0  0  0  0
   21.2758   17.4459   23.4612 H   0  0  0  0  0  0  0  0  0  0  0  0
   21.6122   19.0602   22.8108 H   0  0  0  0  0  0  0  0  0  0  0  0
   20.2532   19.0492   24.5028 C   0  0  0  0  0  0  0  0  0  0  0  0
   20.1441   18.4966   25.4455 H   0  0  0  0  0  0  0  0  0  0  0  0
   20.4401   20.0972   24.7727 H   0  0  0  0  0  0  0  0  0  0  0  0
   18.9312   18.9455   23.7057 C   0  0  0  0  0  0  0  0  0  0  0  0
   18.1090   19.2580   24.3624 H   0  0  0  0  0  0  0  0  0  0  0  0
   18.7411   17.8947   23.4469 H   0  0  0  0  0  0  0  0  0  0  0  0
   18.9270   19.8106   22.4194 C   0  0  0  0  0  0  0  0  0  0  0  0
   19.0968   20.8642   22.6807 H   0  0  0  0  0  0  0  0  0  0  0  0
   19.7642   19.5138   21.7740 H   0  0  0  0  0  0  0  0  0  0  0  0
   17.6203   19.6873   21.5983 C   0  0  0  0  0  0  0  0  0  0  0  0
   17.4510   18.6366   21.3241 H   0  0  0  0  0  0  0  0  0  0  0  0
   17.7457   20.2343   20.6533 H   0  0  0  0  0  0  0  0  0  0  0  0
   16.3765   20.2409   22.3306 C   0  0  0  0  0  0  0  0  0  0  0  0
   16.1324   19.6460   23.2192 H   0  0  0  0  0  0  0  0  0  0  0  0
   15.5005   20.2188   21.6695 H   0  0  0  0  0  0  0  0  0  0  0  0
   16.5331   21.2810   22.6446 H   0  0  0  0  0  0  0  0  0  0  0  0
   23.8950   17.9729   23.6868 C   0  0  0  0  0  0  0  0  0  0  0  0
   24.0039   18.5654   22.7757 H   0  0  0  0  0  0  0  0  0  0  0  0
   24.8191   18.0161   24.2676 H   0  0  0  0  0  0  0  0  0  0  0  0
   23.6696   16.9357   23.4291 H   0  0  0  0  0  0  0  0  0  0  0  0
  1  2  1  0  0  0  0
  1  3  1  0  0  0  0
  1  4  1  0  0  0  0
  4  5  1  0  0  0  0
  4  6  1  0  0  0  0
  4  7  1  0  0  0  0
  7  8  1  0  0  0  0
  7  9  1  0  0  0  0
  7 10  1  0  0  0  0
 10 11  1  0  0  0  0
 10 12  1  0  0  0  0
 10 13  1  0  0  0  0
 13 14  1  0  0  0  0
 13 15  1  0  0  0  0
 13 16  1  0  0  0  0
 16 17  1  0  0  0  0
 16 18  1  0  0  0  0
 16 19  1  0  0  0  0
 19 20  1  0  0  0  0
 19 21  1  0  0  0  0
 19 22  1  0  0  0  0
  1 23  1  0  0  0  0
 23 24  1  0  0  0  0
 23 25  1  0  0  0  0
 23 26  1  0  0  0  0
M  END
> <VConfSearch Rank>
884

> <Conf_Id>
137

> <Delta U+W>
1.038

> <U+W>
22.880

> <U>
71.810

> <W>
-48.930

> <W(PB)>
-51.257

> <W(SA)>
2.327

> <Valence>
2.568

> <Coulomb>
68.877

> <VdW>
0.364

> <VdW6>
-6.470

> <VdW12>
6.834

> <Bond>
0.191

> <Angle>
0.752

> <Pdih>
1.626

> <Idih>
0.000

> <Tether>
0.000

$$$$
VeraChem MOL file


 26 25  0  0  0  0  0  0  0  0999 V2000     
   23.0123   19.5425   23.4170 N   0  3  0  0  0  0  0  0  0  0  0  0
   22.7938   20.4264   23.9025 H   0  0  0  0  0  0  0  0  0  0  0  0
   23.1078   19.7927   22.4205 H   0  0  0  0  0  0  0  0  0  0  0  0
   21.8809   18.5510   23.6011 C   0  0  0  0  0  0  0  0  0  0  0  0
   21.8081   18.3193   24.6667 H   0  0  0  0  0  0  0  0  0  0  0  0
   22.1476   17.6354   23.0671 H   0  0  0  0  0  0  0  0  0  0  0  0
   20.5252   19.0722   23.0907 C   0  0  0  0  0  0  0  0  0  0  0  0
   20.2777   20.0007   23.6202 H   0  0  0  0  0  0  0  0  0  0  0  0
   20.6077   19.3188   22.0238 H   0  0  0  0  0  0  0  0  0  0  0  0
   19.4056   18.0250   23.2982 C   0  0  0  0  0  0  0  0  0  0  0  0
   19.2893   17.8143   24.3704 H   0  0  0  0  0  0  0  0  0  0  0  0
   19.7112   17.0788   22.8301 H   0  0  0  0  0  0  0  0  0  0  0  0
   18.0408   18.4493   22.7016 C   0  0  0  0  0  0  0  0  0  0  0  0
   18.1530   18.6429   21.6258 H   0  0  0  0  0  0  0  0  0  0  0  0
   17.3443   17.6040   22.7908 H   0  0  0  0  0  0  0  0  0  0  0  0
   17.4197   19.6866   23.3924 C   0  0  0  0  0  0  0  0  0  0  0  0
   18.0627   20.5649   23.2479 H   0  0  0  0  0  0  0  0  0  0  0  0
   17.3550   19.5137   24.4758 H   0  0  0  0  0  0  0  0  0  0  0  0
   16.0127   20.0007   22.8402 C   0  0  0  0  0  0  0  0  0  0  0  0
   16.0489   20.2079   21.7627 H   0  0  0  0  0  0  0  0  0  0  0  0
   15.5885   20.8820   23.3385 H   0  0  0  0  0  0  0  0  0  0  0  0
   15.3269   19.1592   23.0036 H   0  0  0  0  0  0  0  0  0  0  0  0
   24.3114   18.9501   23.9456 C   0  0  0  0  0  0  0  0  0  0  0  0
   24.5389   18.0346   23.3950 H   0  0  0  0  0  0  0  0  0  0  0  0
   25.1176   19.6738   23.8071 H   0  0  0  0  0  0  0  0  0  0  0  0
   24.1970   18.7243   25.0081 H   0  0  0  0  0  0  0  0  0  0  0  0
  1  2  1  0  0  0  0
  1  3  1  0  0  0  0
  1  4  1  0  0  0  0
  4  5  1  0  0  0  0
  4  6  1  0  0  0  0
  4  7  1  0  0  0  0
  7  8  1  0  0  0  0
  7  9  1  0  0  0  0
  7 10  1  0  0  0  0
 10 11  1  0  0  0  0
 10 12  1  0  0  0  0
 10 13  1  0  0  0  0
 13 14  1  0  0  0  0
 13 15  1  0  0  0  0
 13 16  1  0  0  0  0
 16 17  1  0  0  0  0
 16 18  1  0  0  0  0
 16 19  1  0  0  0  0
 19 20  1  0  0  0  0
 19 21  1  0  0  0  0
 19 22  1  0  0  0  0
  1 23  1  0  0  0  0
 23 24  1  0  0  0  0
 23 25  1  0  0  0  0
 23 26  1  0  0  0  0
M  END
> <VConfSearch Rank>
885

> <Conf_Id>
35

> <Delta U+W>
0.670

> <U+W>
22.512

> <U>
71.348

> <W>
-48.837

> <W(PB)>
-51.150

> <W(SA)>
2.313

> <Valence>
2.262

> <Coulomb>
68.807

> <VdW>
0.280

> <VdW6>
-5.915

> <VdW12>
6.195

> <Bond>
0.164

> <Angle>
0.622

> <Pdih>
1.475

> <Idih>
0.000

> <Tether>
0.000

$$$$
VeraChem MOL file


 26 25  0  0  0  0  0  0  0  0999 V2000     
   22.2955   19.7698   21.5099 N   0  3  0  0  0  0  0  0  0  0  0  0
   21.7070   20.1808   20.7685 H   0  0  0  0  0  0  0  0  0  0  0  0
   22.3620   18.7655   21.2826 H   0  0  0  0  0  0  0  0  0  0  0  0
   21.6390   19.9577   22.8629 C   0  0  0  0  0  0  0  0  0  0  0  0
   21.5808   21.0310   23.0610 H   0  0  0  0  0  0  0  0  0  0  0  0
   22.2874   19.5033   23.6163 H   0  0  0  0  0  0  0  0  0  0  0  0
   20.2323   19.3382   22.9487 C   0  0  0  0  0  0  0  0  0  0  0  0
   19.5892   19.7861   22.1795 H   0  0  0  0  0  0  0  0  0  0  0  0
   20.3010   18.2652   22.7296 H   0  0  0  0  0  0  0  0  0  0  0  0
   19.6046   19.5583   24.3454 C   0  0  0  0  0  0  0  0  0  0  0  0
   19.6211   20.6322   24.5783 H   0  0  0  0  0  0  0  0  0  0  0  0
   20.2223   19.0680   25.1107 H   0  0  0  0  0  0  0  0  0  0  0  0
   18.1442   19.0546   24.4558 C   0  0  0  0  0  0  0  0  0  0  0  0
   17.7454   19.3560   25.4344 H   0  0  0  0  0  0  0  0  0  0  0  0
   17.5228   19.5579   23.7023 H   0  0  0  0  0  0  0  0  0  0  0  0
   18.0044   17.5208   24.3074 C   0  0  0  0  0  0  0  0  0  0  0  0
   18.6651   17.0164   25.0263 H   0  0  0  0  0  0  0  0  0  0  0  0
   18.3241   17.2055   23.3054 H   0  0  0  0  0  0  0  0  0  0  0  0
   16.5501   17.0568   24.5373 C   0  0  0  0  0  0  0  0  0  0  0  0
   16.2065   17.3180   25.5467 H   0  0  0  0  0  0  0  0  0  0  0  0
   16.4682   15.9679   24.4255 H   0  0  0  0  0  0  0  0  0  0  0  0
   15.8684   17.5218   23.8132 H   0  0  0  0  0  0  0  0  0  0  0  0
   23.6770   20.4096   21.5111 C   0  0  0  0  0  0  0  0  0  0  0  0
   24.2912   19.9364   22.2804 H   0  0  0  0  0  0  0  0  0  0  0  0
   24.1386   20.2672   20.5314 H   0  0  0  0  0  0  0  0  0  0  0  0
   23.5784   21.4769   21.7208 H   0  0  0  0  0  0  0  0  0  0  0  0
  1  2  1  0  0  0  0
  1  3  1  0  0  0  0
  1  4  1  0  0  0  0
  4  5  1  0  0  0  0
  4  6  1  0  0  0  0
  4  7  1  0  0  0  0
  7  8  1  0  0  0  0
  7  9  1  0  0  0  0
  7 10  1  0  0  0  0
 10 11  1  0  0  0  0
 10 12  1  0  0  0  0
 10 13  1  0  0  0  0
 13 14  1  0  0  0  0
 13 15  1  0  0  0  0
 13 16  1  0  0  0  0
 16 17  1  0  0  0  0
 16 18  1  0  0  0  0
 16 19  1  0  0  0  0
 19 20  1  0  0  0  0
 19 21  1  0  0  0  0
 19 22  1  0  0  0  0
  1 23  1  0  0  0  0
 23 24  1  0  0  0  0
 23 25  1  0  0  0  0
 23 26  1  0  0  0  0
M  END
> <VConfSearch Rank>
886

> <Conf_Id>
36

> <Delta U+W>
0.662

> <U+W>
22.504

> <U>
71.348

> <W>
-48.844

> <W(PB)>
-51.157

> <W(SA)>
2.313

> <Valence>
2.262

> <Coulomb>
68.807

> <VdW>
0.280

> <VdW6>
-5.916

> <VdW12>
6.195

> <Bond>
0.164

> <Angle>
0.622

> <Pdih>
1.475

> <Idih>
0.000

> <Tether>
0.000

$$$$
VeraChem MOL file


 26 25  0  0  0  0  0  0  0  0999 V2000     
   20.6676   20.9534   20.9588 N   0  3  0  0  0  0  0  0  0  0  0  0
   21.2730   21.6159   21.4681 H   0  0  0  0  0  0  0  0  0  0  0  0
   19.8718   21.5151   20.6182 H   0  0  0  0  0  0  0  0  0  0  0  0
   20.1781   19.8665   21.8945 C   0  0  0  0  0  0  0  0  0  0  0  0
   21.0500   19.3022   22.2338 H   0  0  0  0  0  0  0  0  0  0  0  0
   19.5343   19.1950   21.3209 H   0  0  0  0  0  0  0  0  0  0  0  0
   19.4048   20.4127   23.1102 C   0  0  0  0  0  0  0  0  0  0  0  0
   20.0511   21.0888   23.6857 H   0  0  0  0  0  0  0  0  0  0  0  0
   18.5571   21.0141   22.7557 H   0  0  0  0  0  0  0  0  0  0  0  0
   18.8731   19.2909   24.0334 C   0  0  0  0  0  0  0  0  0  0  0  0
   18.2049   18.6319   23.4616 H   0  0  0  0  0  0  0  0  0  0  0  0
   18.2589   19.7460   24.8227 H   0  0  0  0  0  0  0  0  0  0  0  0
   20.0004   18.4538   24.6848 C   0  0  0  0  0  0  0  0  0  0  0  0
   20.5931   17.9526   23.9078 H   0  0  0  0  0  0  0  0  0  0  0  0
   20.6854   19.1196   25.2278 H   0  0  0  0  0  0  0  0  0  0  0  0
   19.4387   17.3918   25.6563 C   0  0  0  0  0  0  0  0  0  0  0  0
   18.7519   16.7232   25.1184 H   0  0  0  0  0  0  0  0  0  0  0  0
   18.8503   17.8830   26.4440 H   0  0  0  0  0  0  0  0  0  0  0  0
   20.5637   16.5565   26.3040 C   0  0  0  0  0  0  0  0  0  0  0  0
   21.1489   16.0244   25.5428 H   0  0  0  0  0  0  0  0  0  0  0  0
   20.1453   15.8089   26.9904 H   0  0  0  0  0  0  0  0  0  0  0  0
   21.2486   17.1942   26.8779 H   0  0  0  0  0  0  0  0  0  0  0  0
   21.4207   20.3311   19.7911 C   0  0  0  0  0  0  0  0  0  0  0  0
   20.7510   19.6603   19.2485 H   0  0  0  0  0  0  0  0  0  0  0  0
   21.7675   21.1243   19.1250 H   0  0  0  0  0  0  0  0  0  0  0  0
   22.2764   19.7702   20.1735 H   0  0  0  0  0  0  0  0  0  0  0  0
  1  2  1  0  0  0  0
  1  3  1  0  0  0  0
  1  4  1  0  0  0  0
  4  5  1  0  0  0  0
  4  6  1  0  0  0  0
  4  7  1  0  0  0  0
  7  8  1  0  0  0  0
  7  9  1  0  0  0  0
  7 10  1  0  0  0  0
 10 11  1  0  0  0  0
 10 12  1  0  0  0  0
 10 13  1  0  0  0  0
 13 14  1  0  0  0  0
 13 15  1  0  0  0  0
 13 16  1  0  0  0  0
 16 17  1  0  0  0  0
 16 18  1  0  0  0  0
 16 19  1  0  0  0  0
 19 20  1  0  0  0  0
 19 21  1  0  0  0  0
 19 22  1  0  0  0  0
  1 23  1  0  0  0  0
 23 24  1  0  0  0  0
 23 25  1  0  0  0  0
 23 26  1  0  0  0  0
M  END
> <VConfSearch Rank>
887

> <Conf_Id>
46

> <Delta U+W>
0.496

> <U+W>
22.338

> <U>
71.138

> <W>
-48.799

> <W(PB)>
-51.136

> <W(SA)>
2.337

> <Valence>
2.016

> <Coulomb>
68.932

> <VdW>
0.190

> <VdW6>
-5.902

> <VdW12>
6.092

> <Bond>
0.149

> <Angle>
0.477

> <Pdih>
1.390

> <Idih>
0.000

> <Tether>
0.000

$$$$
VeraChem MOL file


 26 25  0  0  0  0  0  0  0  0999 V2000     
   18.5477   16.7892   24.6486 N   0  3  0  0  0  0  0  0  0  0  0  0
   19.0549   16.3175   25.4135 H   0  0  0  0  0  0  0  0  0  0  0  0
   18.5824   16.1346   23.8517 H   0  0  0  0  0  0  0  0  0  0  0  0
   19.2373   18.0895   24.2877 C   0  0  0  0  0  0  0  0  0  0  0  0
   19.1881   18.7481   25.1585 H   0  0  0  0  0  0  0  0  0  0  0  0
   18.6725   18.5508   23.4742 H   0  0  0  0  0  0  0  0  0  0  0  0
   20.7063   17.9019   23.8622 C   0  0  0  0  0  0  0  0  0  0  0  0
   21.2525   17.3980   24.6706 H   0  0  0  0  0  0  0  0  0  0  0  0
   20.7558   17.2387   22.9883 H   0  0  0  0  0  0  0  0  0  0  0  0
   21.4105   19.2409   23.5392 C   0  0  0  0  0  0  0  0  0  0  0  0
   22.4712   19.0404   23.3339 H   0  0  0  0  0  0  0  0  0  0  0  0
   21.3835   19.8919   24.4242 H   0  0  0  0  0  0  0  0  0  0  0  0
   20.7886   19.9788   22.3289 C   0  0  0  0  0  0  0  0  0  0  0  0
   20.7868   19.3134   21.4544 H   0  0  0  0  0  0  0  0  0  0  0  0
   19.7405   20.2297   22.5399 H   0  0  0  0  0  0  0  0  0  0  0  0
   21.5599   21.2734   21.9877 C   0  0  0  0  0  0  0  0  0  0  0  0
   22.6092   21.0333   21.7660 H   0  0  0  0  0  0  0  0  0  0  0  0
   21.5656   21.9426   22.8595 H   0  0  0  0  0  0  0  0  0  0  0  0
   20.9378   22.0092   20.7816 C   0  0  0  0  0  0  0  0  0  0  0  0
   20.9488   21.3766   19.8845 H   0  0  0  0  0  0  0  0  0  0  0  0
   21.4992   22.9249   20.5546 H   0  0  0  0  0  0  0  0  0  0  0  0
   19.8976   22.2942   20.9863 H   0  0  0  0  0  0  0  0  0  0  0  0
   17.1056   17.0626   25.0529 C   0  0  0  0  0  0  0  0  0  0  0  0
   16.6207   16.1183   25.3104 H   0  0  0  0  0  0  0  0  0  0  0  0
   17.0953   17.7302   25.9173 H   0  0  0  0  0  0  0  0  0  0  0  0
   16.5809   17.5308   24.2172 H   0  0  0  0  0  0  0  0  0  0  0  0
  1  2  1  0  0  0  0
  1  3  1  0  0  0  0
  1  4  1  0  0  0  0
  4  5  1  0  0  0  0
  4  6  1  0  0  0  0
  4  7  1  0  0  0  0
  7  8  1  0  0  0  0
  7  9  1  0  0  0  0
  7 10  1  0  0  0  0
 10 11  1  0  0  0  0
 10 12  1  0  0  0  0
 10 13  1  0  0  0  0
 13 14  1  0  0  0  0
 13 15  1  0  0  0  0
 13 16  1  0  0  0  0
 16 17  1  0  0  0  0
 16 18  1  0  0  0  0
 16 19  1  0  0  0  0
 19 20  1  0  0  0  0
 19 21  1  0  0  0  0
 19 22  1  0  0  0  0
  1 23  1  0  0  0  0
 23 24  1  0  0  0  0
 23 25  1  0  0  0  0
 23 26  1  0  0  0  0
M  END
> <VConfSearch Rank>
888

> <Conf_Id>
45

> <Delta U+W>
0.471

> <U+W>
22.313

> <U>
71.138

> <W>
-48.825

> <W(PB)>
-51.169

> <W(SA)>
2.344

> <Valence>
2.016

> <Coulomb>
68.932

> <VdW>
0.190

> <VdW6>
-5.902

> <VdW12>
6.092

> <Bond>
0.149

> <Angle>
0.477

> <Pdih>
1.390

> <Idih>
0.000

> <Tether>
0.000

$$$$
VeraChem MOL file


 26 25  0  0  0  0  0  0  0  0999 V2000     
   19.6898   19.5578   20.7599 N   0  3  0  0  0  0  0  0  0  0  0  0
   20.5053   20.1095   21.0663 H   0  0  0  0  0  0  0  0  0  0  0  0
   18.8627   20.0987   21.0563 H   0  0  0  0  0  0  0  0  0  0  0  0
   19.6957   18.2006   21.4366 C   0  0  0  0  0  0  0  0  0  0  0  0
   20.5881   17.6630   21.1063 H   0  0  0  0  0  0  0  0  0  0  0  0
   18.8176   17.6528   21.0850 H   0  0  0  0  0  0  0  0  0  0  0  0
   19.6723   18.2703   22.9762 C   0  0  0  0  0  0  0  0  0  0  0  0
   18.7724   18.8099   23.2971 H   0  0  0  0  0  0  0  0  0  0  0  0
   19.5835   17.2485   23.3683 H   0  0  0  0  0  0  0  0  0  0  0  0
   20.9430   18.9364   23.5610 C   0  0  0  0  0  0  0  0  0  0  0  0
   20.9963   19.9879   23.2487 H   0  0  0  0  0  0  0  0  0  0  0  0
   21.8302   18.4430   23.1400 H   0  0  0  0  0  0  0  0  0  0  0  0
   21.0251   18.8582   25.1055 C   0  0  0  0  0  0  0  0  0  0  0  0
   20.9967   17.8069   25.4236 H   0  0  0  0  0  0  0  0  0  0  0  0
   22.0019   19.2490   25.4226 H   0  0  0  0  0  0  0  0  0  0  0  0
   19.9085   19.6514   25.8254 C   0  0  0  0  0  0  0  0  0  0  0  0
   18.9250   19.2282   25.5818 H   0  0  0  0  0  0  0  0  0  0  0  0
   19.9045   20.6917   25.4711 H   0  0  0  0  0  0  0  0  0  0  0  0
   20.0951   19.6340   27.3576 C   0  0  0  0  0  0  0  0  0  0  0  0
   20.0735   18.6075   27.7462 H   0  0  0  0  0  0  0  0  0  0  0  0
   19.2938   20.1982   27.8522 H   0  0  0  0  0  0  0  0  0  0  0  0
   21.0526   20.0880   27.6446 H   0  0  0  0  0  0  0  0  0  0  0  0
   19.7012   19.3833   19.2477 C   0  0  0  0  0  0  0  0  0  0  0  0
   18.8134   18.8242   18.9442 H   0  0  0  0  0  0  0  0  0  0  0  0
   19.6974   20.3673   18.7734 H   0  0  0  0  0  0  0  0  0  0  0  0
   20.6006   18.8366   18.9560 H   0  0  0  0  0  0  0  0  0  0  0  0
  1  2  1  0  0  0  0
  1  3  1  0  0  0  0
  1  4  1  0  0  0  0
  4  5  1  0  0  0  0
  4  6  1  0  0  0  0
  4  7  1  0  0  0  0
  7  8  1  0  0  0  0
  7  9  1  0  0  0  0
  7 10  1  0  0  0  0
 10 11  1  0  0  0  0
 10 12  1  0  0  0  0
 10 13  1  0  0  0  0
 13 14  1  0  0  0  0
 13 15  1  0  0  0  0
 13 16  1  0  0  0  0
 16 17  1  0  0  0  0
 16 18  1  0  0  0  0
 16 19  1  0  0  0  0
 19 20  1  0  0  0  0
 19 21  1  0  0  0  0
 19 22  1  0  0  0  0
  1 23  1  0  0  0  0
 23 24  1  0  0  0  0
 23 25  1  0  0  0  0
 23 26  1  0  0  0  0
M  END
> <VConfSearch Rank>
889

> <Conf_Id>
143

> <Delta U+W>
0.915

> <U+W>
22.757

> <U>
71.994

> <W>
-49.237

> <W(PB)>
-51.537

> <W(SA)>
2.300

> <Valence>
2.376

> <Coulomb>
69.315

> <VdW>
0.303

> <VdW6>
-6.508

> <VdW12>
6.810

> <Bond>
0.182

> <Angle>
0.660

> <Pdih>
1.534

> <Idih>
0.000

> <Tether>
0.000

$$$$
VeraChem MOL file


 26 25  0  0  0  0  0  0  0  0999 V2000     
   19.3670   21.0121   21.7237 N   0  3  0  0  0  0  0  0  0  0  0  0
   20.0593   21.4864   22.3226 H   0  0  0  0  0  0  0  0  0  0  0  0
   18.4567   21.1534   22.1883 H   0  0  0  0  0  0  0  0  0  0  0  0
   19.6823   19.5313   21.6333 C   0  0  0  0  0  0  0  0  0  0  0  0
   20.6547   19.4216   21.1465 H   0  0  0  0  0  0  0  0  0  0  0  0
   18.9258   19.0737   20.9907 H   0  0  0  0  0  0  0  0  0  0  0  0
   19.6989   18.8085   22.9948 C   0  0  0  0  0  0  0  0  0  0  0  0
   18.7313   18.9455   23.4955 H   0  0  0  0  0  0  0  0  0  0  0  0
   19.8105   17.7346   22.8020 H   0  0  0  0  0  0  0  0  0  0  0  0
   20.8492   19.2885   23.9134 C   0  0  0  0  0  0  0  0  0  0  0  0
   20.8003   20.3799   24.0217 H   0  0  0  0  0  0  0  0  0  0  0  0
   21.8131   19.0725   23.4322 H   0  0  0  0  0  0  0  0  0  0  0  0
   20.8336   18.6682   25.3348 C   0  0  0  0  0  0  0  0  0  0  0  0
   21.6636   19.1157   25.8991 H   0  0  0  0  0  0  0  0  0  0  0  0
   19.9203   18.9674   25.8675 H   0  0  0  0  0  0  0  0  0  0  0  0
   20.9985   17.1269   25.3768 C   0  0  0  0  0  0  0  0  0  0  0  0
   21.5919   16.8625   26.2634 H   0  0  0  0  0  0  0  0  0  0  0  0
   21.5800   16.7805   24.5111 H   0  0  0  0  0  0  0  0  0  0  0  0
   19.6537   16.3673   25.4610 C   0  0  0  0  0  0  0  0  0  0  0  0
   19.0119   16.5655   24.5956 H   0  0  0  0  0  0  0  0  0  0  0  0
   19.0990   16.6521   26.3644 H   0  0  0  0  0  0  0  0  0  0  0  0
   19.8267   15.2842   25.5052 H   0  0  0  0  0  0  0  0  0  0  0  0
   19.3575   21.6259   20.3306 C   0  0  0  0  0  0  0  0  0  0  0  0
   18.5958   21.1300   19.7250 H   0  0  0  0  0  0  0  0  0  0  0  0
   19.1297   22.6912   20.4100 H   0  0  0  0  0  0  0  0  0  0  0  0
   20.3398   21.4919   19.8724 H   0  0  0  0  0  0  0  0  0  0  0  0
  1  2  1  0  0  0  0
  1  3  1  0  0  0  0
  1  4  1  0  0  0  0
  4  5  1  0  0  0  0
  4  6  1  0  0  0  0
  4  7  1  0  0  0  0
  7  8  1  0  0  0  0
  7  9  1  0  0  0  0
  7 10  1  0  0  0  0
 10 11  1  0  0  0  0
 10 12  1  0  0  0  0
 10 13  1  0  0  0  0
 13 14  1  0  0  0  0
 13 15  1  0  0  0  0
 13 16  1  0  0  0  0
 16 17  1  0  0  0  0
 16 18  1  0  0  0  0
 16 19  1  0  0  0  0
 19 20  1  0  0  0  0
 19 21  1  0  0  0  0
 19 22  1  0  0  0  0
  1 23  1  0  0  0  0
 23 24  1  0  0  0  0
 23 25  1  0  0  0  0
 23 26  1  0  0  0  0
M  END
> <VConfSearch Rank>
890

> <Conf_Id>
76

> <Delta U+W>
3.468

> <U+W>
25.310

> <U>
74.594

> <W>
-49.283

> <W(PB)>
-51.537

> <W(SA)>
2.253

> <Valence>
4.886

> <Coulomb>
69.332

> <VdW>
0.376

> <VdW6>
-7.329

> <VdW12>
7.705

> <Bond>
0.232

> <Angle>
1.251

> <Pdih>
3.403

> <Idih>
0.000

> <Tether>
0.000

$$$$
VeraChem MOL file


 26 25  0  0  0  0  0  0  0  0999 V2000     
   19.8484   19.3228   20.5980 N   0  3  0  0  0  0  0  0  0  0  0  0
   19.2523   20.1320   20.8315 H   0  0  0  0  0  0  0  0  0  0  0  0
   19.1952   18.5552   20.3766 H   0  0  0  0  0  0  0  0  0  0  0  0
   20.7115   18.9485   21.7862 C   0  0  0  0  0  0  0  0  0  0  0  0
   21.3811   19.7875   21.9917 H   0  0  0  0  0  0  0  0  0  0  0  0
   21.3184   18.0855   21.5011 H   0  0  0  0  0  0  0  0  0  0  0  0
   19.8974   18.6146   23.0494 C   0  0  0  0  0  0  0  0  0  0  0  0
   19.2731   19.4755   23.3133 H   0  0  0  0  0  0  0  0  0  0  0  0
   19.2151   17.7823   22.8313 H   0  0  0  0  0  0  0  0  0  0  0  0
   20.8219   18.2290   24.2293 C   0  0  0  0  0  0  0  0  0  0  0  0
   21.5505   19.0286   24.4225 H   0  0  0  0  0  0  0  0  0  0  0  0
   21.4094   17.3501   23.9290 H   0  0  0  0  0  0  0  0  0  0  0  0
   20.0527   17.8834   25.5314 C   0  0  0  0  0  0  0  0  0  0  0  0
   19.0666   17.4622   25.2920 H   0  0  0  0  0  0  0  0  0  0  0  0
   20.5985   17.0818   26.0482 H   0  0  0  0  0  0  0  0  0  0  0  0
   19.9015   19.0608   26.5285 C   0  0  0  0  0  0  0  0  0  0  0  0
   20.8959   19.4069   26.8436 H   0  0  0  0  0  0  0  0  0  0  0  0
   19.4088   18.6866   27.4368 H   0  0  0  0  0  0  0  0  0  0  0  0
   19.0916   20.2579   25.9841 C   0  0  0  0  0  0  0  0  0  0  0  0
   18.1161   19.9345   25.5986 H   0  0  0  0  0  0  0  0  0  0  0  0
   19.6328   20.7733   25.1812 H   0  0  0  0  0  0  0  0  0  0  0  0
   18.9111   20.9920   26.7799 H   0  0  0  0  0  0  0  0  0  0  0  0
   20.7292   19.6374   19.3968 C   0  0  0  0  0  0  0  0  0  0  0  0
   21.3878   20.4731   19.6434 H   0  0  0  0  0  0  0  0  0  0  0  0
   21.3256   18.7568   19.1483 H   0  0  0  0  0  0  0  0  0  0  0  0
   20.0955   19.9051   18.5483 H   0  0  0  0  0  0  0  0  0  0  0  0
  1  2  1  0  0  0  0
  1  3  1  0  0  0  0
  1  4  1  0  0  0  0
  4  5  1  0  0  0  0
  4  6  1  0  0  0  0
  4  7  1  0  0  0  0
  7  8  1  0  0  0  0
  7  9  1  0  0  0  0
  7 10  1  0  0  0  0
 10 11  1  0  0  0  0
 10 12  1  0  0  0  0
 10 13  1  0  0  0  0
 13 14  1  0  0  0  0
 13 15  1  0  0  0  0
 13 16  1  0  0  0  0
 16 17  1  0  0  0  0
 16 18  1  0  0  0  0
 16 19  1  0  0  0  0
 19 20  1  0  0  0  0
 19 21  1  0  0  0  0
 19 22  1  0  0  0  0
  1 23  1  0  0  0  0
 23 24  1  0  0  0  0
 23 25  1  0  0  0  0
 23 26  1  0  0  0  0
M  END
> <VConfSearch Rank>
891

> <Conf_Id>
123

> <Delta U+W>
3.101

> <U+W>
24.943

> <U>
74.070

> <W>
-49.127

> <W(PB)>
-51.421

> <W(SA)>
2.295

> <Valence>
4.690

> <Coulomb>
69.115

> <VdW>
0.266

> <VdW6>
-6.809

> <VdW12>
7.075

> <Bond>
0.212

> <Angle>
1.133

> <Pdih>
3.345

> <Idih>
0.000

> <Tether>
0.000

$$$$
VeraChem MOL file


 26 25  0  0  0  0  0  0  0  0999 V2000     
   18.7094   20.9222   22.0311 N   0  3  0  0  0  0  0  0  0  0  0  0
   18.7966   21.7530   22.6367 H   0  0  0  0  0  0  0  0  0  0  0  0
   17.9926   20.3296   22.4763 H   0  0  0  0  0  0  0  0  0  0  0  0
   20.0314   20.1817   21.9678 C   0  0  0  0  0  0  0  0  0  0  0  0
   20.7575   20.8446   21.4903 H   0  0  0  0  0  0  0  0  0  0  0  0
   19.8971   19.3057   21.3283 H   0  0  0  0  0  0  0  0  0  0  0  0
   20.5697   19.7414   23.3435 C   0  0  0  0  0  0  0  0  0  0  0  0
   21.5707   19.3195   23.1999 H   0  0  0  0  0  0  0  0  0  0  0  0
   20.6975   20.6239   23.9843 H   0  0  0  0  0  0  0  0  0  0  0  0
   19.6478   18.7104   24.0436 C   0  0  0  0  0  0  0  0  0  0  0  0
   19.4361   17.8677   23.3709 H   0  0  0  0  0  0  0  0  0  0  0  0
   18.6802   19.1882   24.2468 H   0  0  0  0  0  0  0  0  0  0  0  0
   20.2193   18.1868   25.3873 C   0  0  0  0  0  0  0  0  0  0  0  0
   20.8531   18.9518   25.8567 H   0  0  0  0  0  0  0  0  0  0  0  0
   19.3800   18.0334   26.0797 H   0  0  0  0  0  0  0  0  0  0  0  0
   20.9896   16.8453   25.2853 C   0  0  0  0  0  0  0  0  0  0  0  0
   20.3163   16.0615   24.9109 H   0  0  0  0  0  0  0  0  0  0  0  0
   21.2837   16.5345   26.2976 H   0  0  0  0  0  0  0  0  0  0  0  0
   22.2529   16.9014   24.3985 C   0  0  0  0  0  0  0  0  0  0  0  0
   22.9212   17.7140   24.7114 H   0  0  0  0  0  0  0  0  0  0  0  0
   21.9932   17.0479   23.3429 H   0  0  0  0  0  0  0  0  0  0  0  0
   22.8133   15.9603   24.4698 H   0  0  0  0  0  0  0  0  0  0  0  0
   18.2733   21.3252   20.6294 C   0  0  0  0  0  0  0  0  0  0  0  0
   18.1574   20.4280   20.0175 H   0  0  0  0  0  0  0  0  0  0  0  0
   17.3209   21.8565   20.6894 H   0  0  0  0  0  0  0  0  0  0  0  0
   19.0322   21.9768   20.1907 H   0  0  0  0  0  0  0  0  0  0  0  0
  1  2  1  0  0  0  0
  1  3  1  0  0  0  0
  1  4  1  0  0  0  0
  4  5  1  0  0  0  0
  4  6  1  0  0  0  0
  4  7  1  0  0  0  0
  7  8  1  0  0  0  0
  7  9  1  0  0  0  0
  7 10  1  0  0  0  0
 10 11  1  0  0  0  0
 10 12  1  0  0  0  0
 10 13  1  0  0  0  0
 13 14  1  0  0  0  0
 13 15  1  0  0  0  0
 13 16  1  0  0  0  0
 16 17  1  0  0  0  0
 16 18  1  0  0  0  0
 16 19  1  0  0  0  0
 19 20  1  0  0  0  0
 19 21  1  0  0  0  0
 19 22  1  0  0  0  0
  1 23  1  0  0  0  0
 23 24  1  0  0  0  0
 23 25  1  0  0  0  0
 23 26  1  0  0  0  0
M  END
> <VConfSearch Rank>
892

> <Conf_Id>
111

> <Delta U+W>
3.383

> <U+W>
25.225

> <U>
74.516

> <W>
-49.292

> <W(PB)>
-51.558

> <W(SA)>
2.266

> <Valence>
4.842

> <Coulomb>
69.333

> <VdW>
0.342

> <VdW6>
-7.369

> <VdW12>
7.711

> <Bond>
0.232

> <Angle>
1.153

> <Pdih>
3.457

> <Idih>
0.000

> <Tether>
0.000

$$$$
VeraChem MOL file


 26 25  0  0  0  0  0  0  0  0999 V2000     
   22.1235   19.9613   22.4549 N   0  3  0  0  0  0  0  0  0  0  0  0
   22.1881   20.0512   21.4291 H   0  0  0  0  0  0  0  0  0  0  0  0
   21.9379   18.9631   22.6344 H   0  0  0  0  0  0  0  0  0  0  0  0
   20.9777   20.8034   22.9810 C   0  0  0  0  0  0  0  0  0  0  0  0
   21.2074   21.8491   22.7613 H   0  0  0  0  0  0  0  0  0  0  0  0
   20.9437   20.6852   24.0665 H   0  0  0  0  0  0  0  0  0  0  0  0
   19.6066   20.4419   22.3729 C   0  0  0  0  0  0  0  0  0  0  0  0
   18.8513   21.1301   22.7749 H   0  0  0  0  0  0  0  0  0  0  0  0
   19.6367   20.6208   21.2899 H   0  0  0  0  0  0  0  0  0  0  0  0
   19.1593   18.9818   22.6379 C   0  0  0  0  0  0  0  0  0  0  0  0
   19.8616   18.2830   22.1645 H   0  0  0  0  0  0  0  0  0  0  0  0
   18.1933   18.8271   22.1399 H   0  0  0  0  0  0  0  0  0  0  0  0
   19.0241   18.6487   24.1458 C   0  0  0  0  0  0  0  0  0  0  0  0
   19.9834   18.8257   24.6497 H   0  0  0  0  0  0  0  0  0  0  0  0
   18.2999   19.3308   24.6121 H   0  0  0  0  0  0  0  0  0  0  0  0
   18.6025   17.1841   24.4179 C   0  0  0  0  0  0  0  0  0  0  0  0
   18.6435   17.0020   25.5010 H   0  0  0  0  0  0  0  0  0  0  0  0
   19.3299   16.4968   23.9638 H   0  0  0  0  0  0  0  0  0  0  0  0
   17.1814   16.8465   23.9117 C   0  0  0  0  0  0  0  0  0  0  0  0
   17.1210   16.8902   22.8173 H   0  0  0  0  0  0  0  0  0  0  0  0
   16.4390   17.5411   24.3258 H   0  0  0  0  0  0  0  0  0  0  0  0
   16.8967   15.8311   24.2163 H   0  0  0  0  0  0  0  0  0  0  0  0
   23.4273   20.3896   23.1135 C   0  0  0  0  0  0  0  0  0  0  0  0
   24.2430   19.7748   22.7266 H   0  0  0  0  0  0  0  0  0  0  0  0
   23.6169   21.4405   22.8843 H   0  0  0  0  0  0  0  0  0  0  0  0
   23.3448   20.2555   24.1943 H   0  0  0  0  0  0  0  0  0  0  0  0
  1  2  1  0  0  0  0
  1  3  1  0  0  0  0
  1  4  1  0  0  0  0
  4  5  1  0  0  0  0
  4  6  1  0  0  0  0
  4  7  1  0  0  0  0
  7  8  1  0  0  0  0
  7  9  1  0  0  0  0
  7 10  1  0  0  0  0
 10 11  1  0  0  0  0
 10 12  1  0  0  0  0
 10 13  1  0  0  0  0
 13 14  1  0  0  0  0
 13 15  1  0  0  0  0
 13 16  1  0  0  0  0
 16 17  1  0  0  0  0
 16 18  1  0  0  0  0
 16 19  1  0  0  0  0
 19 20  1  0  0  0  0
 19 21  1  0  0  0  0
 19 22  1  0  0  0  0
  1 23  1  0  0  0  0
 23 24  1  0  0  0  0
 23 25  1  0  0  0  0
 23 26  1  0  0  0  0
M  END
> <VConfSearch Rank>
893

> <Conf_Id>
126

> <Delta U+W>
1.519

> <U+W>
23.361

> <U>
72.579

> <W>
-49.218

> <W(PB)>
-51.496

> <W(SA)>
2.279

> <Valence>
2.678

> <Coulomb>
69.622

> <VdW>
0.279

> <VdW6>
-7.328

> <VdW12>
7.608

> <Bond>
0.212

> <Angle>
0.911

> <Pdih>
1.555

> <Idih>
0.000

> <Tether>
0.000

$$$$
VeraChem MOL file


 26 25  0  0  0  0  0  0  0  0999 V2000     
   21.3747   20.6876   24.5337 N   0  3  0  0  0  0  0  0  0  0  0  0
   20.3569   20.7740   24.3934 H   0  0  0  0  0  0  0  0  0  0  0  0
   21.7966   21.4497   23.9807 H   0  0  0  0  0  0  0  0  0  0  0  0
   21.8556   19.3440   24.0218 C   0  0  0  0  0  0  0  0  0  0  0  0
   21.3917   18.5656   24.6320 H   0  0  0  0  0  0  0  0  0  0  0  0
   22.9363   19.2977   24.1780 H   0  0  0  0  0  0  0  0  0  0  0  0
   21.5428   19.0954   22.5316 C   0  0  0  0  0  0  0  0  0  0  0  0
   22.0623   19.8496   21.9258 H   0  0  0  0  0  0  0  0  0  0  0  0
   21.9669   18.1252   22.2404 H   0  0  0  0  0  0  0  0  0  0  0  0
   20.0316   19.1155   22.1877 C   0  0  0  0  0  0  0  0  0  0  0  0
   19.9275   18.9587   21.1063 H   0  0  0  0  0  0  0  0  0  0  0  0
   19.6139   20.1100   22.3932 H   0  0  0  0  0  0  0  0  0  0  0  0
   19.2179   18.0375   22.9484 C   0  0  0  0  0  0  0  0  0  0  0  0
   19.6194   17.0407   22.7196 H   0  0  0  0  0  0  0  0  0  0  0  0
   19.3404   18.1786   24.0303 H   0  0  0  0  0  0  0  0  0  0  0  0
   17.7034   18.0694   22.6291 C   0  0  0  0  0  0  0  0  0  0  0  0
   17.2934   19.0608   22.8675 H   0  0  0  0  0  0  0  0  0  0  0  0
   17.1895   17.3580   23.2908 H   0  0  0  0  0  0  0  0  0  0  0  0
   17.3740   17.7091   21.1624 C   0  0  0  0  0  0  0  0  0  0  0  0
   17.8017   16.7358   20.8889 H   0  0  0  0  0  0  0  0  0  0  0  0
   17.7590   18.4628   20.4646 H   0  0  0  0  0  0  0  0  0  0  0  0
   16.2876   17.6505   21.0163 H   0  0  0  0  0  0  0  0  0  0  0  0
   21.7258   20.8373   26.0074 C   0  0  0  0  0  0  0  0  0  0  0  0
   21.2425   20.0388   26.5746 H   0  0  0  0  0  0  0  0  0  0  0  0
   22.8095   20.7724   26.1265 H   0  0  0  0  0  0  0  0  0  0  0  0
   21.3731   21.8080   26.3629 H   0  0  0  0  0  0  0  0  0  0  0  0
  1  2  1  0  0  0  0
  1  3  1  0  0  0  0
  1  4  1  0  0  0  0
  4  5  1  0  0  0  0
  4  6  1  0  0  0  0
  4  7  1  0  0  0  0
  7  8  1  0  0  0  0
  7  9  1  0  0  0  0
  7 10  1  0  0  0  0
 10 11  1  0  0  0  0
 10 12  1  0  0  0  0
 10 13  1  0  0  0  0
 13 14  1  0  0  0  0
 13 15  1  0  0  0  0
 13 16  1  0  0  0  0
 16 17  1  0  0  0  0
 16 18  1  0  0  0  0
 16 19  1  0  0  0  0
 19 20  1  0  0  0  0
 19 21  1  0  0  0  0
 19 22  1  0  0  0  0
  1 23  1  0  0  0  0
 23 24  1  0  0  0  0
 23 25  1  0  0  0  0
 23 26  1  0  0  0  0
M  END
> <VConfSearch Rank>
894

> <Conf_Id>
134

> <Delta U+W>
1.464

> <U+W>
23.306

> <U>
72.579

> <W>
-49.273

> <W(PB)>
-51.540

> <W(SA)>
2.267

> <Valence>
2.677

> <Coulomb>
69.622

> <VdW>
0.280

> <VdW6>
-7.328

> <VdW12>
7.608

> <Bond>
0.212

> <Angle>
0.911

> <Pdih>
1.555

> <Idih>
0.000

> <Tether>
0.000

$$$$
VeraChem MOL file


 26 25  0  0  0  0  0  0  0  0999 V2000     
   17.7434   20.1524   22.3031 N   0  3  0  0  0  0  0  0  0  0  0  0
   17.2840   19.6769   23.0953 H   0  0  0  0  0  0  0  0  0  0  0  0
   17.5861   19.5407   21.4870 H   0  0  0  0  0  0  0  0  0  0  0  0
   19.2283   20.2970   22.5694 C   0  0  0  0  0  0  0  0  0  0  0  0
   19.3510   20.9429   23.4425 H   0  0  0  0  0  0  0  0  0  0  0  0
   19.6766   20.7957   21.7064 H   0  0  0  0  0  0  0  0  0  0  0  0
   19.9365   18.9527   22.8164 C   0  0  0  0  0  0  0  0  0  0  0  0
   19.4663   18.4532   23.6730 H   0  0  0  0  0  0  0  0  0  0  0  0
   19.7975   18.3008   21.9438 H   0  0  0  0  0  0  0  0  0  0  0  0
   21.4471   19.1524   23.0820 C   0  0  0  0  0  0  0  0  0  0  0  0
   21.5882   19.7721   23.9776 H   0  0  0  0  0  0  0  0  0  0  0  0
   21.8831   19.7225   22.2498 H   0  0  0  0  0  0  0  0  0  0  0  0
   22.2331   17.8235   23.2279 C   0  0  0  0  0  0  0  0  0  0  0  0
   22.1745   17.2679   22.2818 H   0  0  0  0  0  0  0  0  0  0  0  0
   23.2969   18.0576   23.3725 H   0  0  0  0  0  0  0  0  0  0  0  0
   21.7633   16.8986   24.3799 C   0  0  0  0  0  0  0  0  0  0  0  0
   22.3906   15.9962   24.3813 H   0  0  0  0  0  0  0  0  0  0  0  0
   20.7386   16.5501   24.1936 H   0  0  0  0  0  0  0  0  0  0  0  0
   21.8438   17.5621   25.7735 C   0  0  0  0  0  0  0  0  0  0  0  0
   22.8561   17.9358   25.9748 H   0  0  0  0  0  0  0  0  0  0  0  0
   21.5907   16.8384   26.5591 H   0  0  0  0  0  0  0  0  0  0  0  0
   21.1432   18.4018   25.8605 H   0  0  0  0  0  0  0  0  0  0  0  0
   17.1229   21.5230   22.0705 C   0  0  0  0  0  0  0  0  0  0  0  0
   17.6016   21.9924   21.2082 H   0  0  0  0  0  0  0  0  0  0  0  0
   16.0539   21.4046   21.8798 H   0  0  0  0  0  0  0  0  0  0  0  0
   17.2729   22.1406   22.9588 H   0  0  0  0  0  0  0  0  0  0  0  0
  1  2  1  0  0  0  0
  1  3  1  0  0  0  0
  1  4  1  0  0  0  0
  4  5  1  0  0  0  0
  4  6  1  0  0  0  0
  4  7  1  0  0  0  0
  7  8  1  0  0  0  0
  7  9  1  0  0  0  0
  7 10  1  0  0  0  0
 10 11  1  0  0  0  0
 10 12  1  0  0  0  0
 10 13  1  0  0  0  0
 13 14  1  0  0  0  0
 13 15  1  0  0  0  0
 13 16  1  0  0  0  0
 16 17  1  0  0  0  0
 16 18  1  0  0  0  0
 16 19  1  0  0  0  0
 19 20  1  0  0  0  0
 19 21  1  0  0  0  0
 19 22  1  0  0  0  0
  1 23  1  0  0  0  0
 23 24  1  0  0  0  0
 23 25  1  0  0  0  0
 23 26  1  0  0  0  0
M  END
> <VConfSearch Rank>
895

> <Conf_Id>
30

> <Delta U+W>
0.910

> <U+W>
22.752

> <U>
71.870

> <W>
-49.118

> <W(PB)>
-51.409

> <W(SA)>
2.290

> <Valence>
2.682

> <Coulomb>
68.933

> <VdW>
0.255

> <VdW6>
-6.833

> <VdW12>
7.088

> <Bond>
0.205

> <Angle>
1.003

> <Pdih>
1.473

> <Idih>
0.000

> <Tether>
0.000

$$$$
VeraChem MOL file


 26 25  0  0  0  0  0  0  0  0999 V2000     
   17.7307   17.7898   24.3833 N   0  3  0  0  0  0  0  0  0  0  0  0
   17.4009   17.2563   23.5638 H   0  0  0  0  0  0  0  0  0  0  0  0
   17.2741   18.7124   24.3123 H   0  0  0  0  0  0  0  0  0  0  0  0
   19.2373   17.9464   24.3333 C   0  0  0  0  0  0  0  0  0  0  0  0
   19.6804   16.9497   24.4026 H   0  0  0  0  0  0  0  0  0  0  0  0
   19.5440   18.5214   25.2107 H   0  0  0  0  0  0  0  0  0  0  0  0
   19.7346   18.6466   23.0557 C   0  0  0  0  0  0  0  0  0  0  0  0
   19.4111   18.0746   22.1760 H   0  0  0  0  0  0  0  0  0  0  0  0
   19.2694   19.6381   22.9875 H   0  0  0  0  0  0  0  0  0  0  0  0
   21.2755   18.7817   23.0511 C   0  0  0  0  0  0  0  0  0  0  0  0
   21.7210   17.7881   23.1990 H   0  0  0  0  0  0  0  0  0  0  0  0
   21.5980   19.3868   23.9090 H   0  0  0  0  0  0  0  0  0  0  0  0
   21.8426   19.3802   21.7376 C   0  0  0  0  0  0  0  0  0  0  0  0
   22.9390   19.4019   21.8051 H   0  0  0  0  0  0  0  0  0  0  0  0
   21.6069   18.7028   20.9053 H   0  0  0  0  0  0  0  0  0  0  0  0
   21.3348   20.8015   21.3834 C   0  0  0  0  0  0  0  0  0  0  0  0
   20.2541   20.7816   21.1891 H   0  0  0  0  0  0  0  0  0  0  0  0
   21.8029   21.1145   20.4396 H   0  0  0  0  0  0  0  0  0  0  0  0
   21.6507   21.8559   22.4685 C   0  0  0  0  0  0  0  0  0  0  0  0
   21.1085   21.6499   23.3997 H   0  0  0  0  0  0  0  0  0  0  0  0
   21.3554   22.8572   22.1293 H   0  0  0  0  0  0  0  0  0  0  0  0
   22.7248   21.8810   22.6937 H   0  0  0  0  0  0  0  0  0  0  0  0
   17.3251   17.0912   25.6737 C   0  0  0  0  0  0  0  0  0  0  0  0
   16.2383   16.9846   25.6970 H   0  0  0  0  0  0  0  0  0  0  0  0
   17.7933   16.1051   25.7108 H   0  0  0  0  0  0  0  0  0  0  0  0
   17.6553   17.6900   26.5254 H   0  0  0  0  0  0  0  0  0  0  0  0
  1  2  1  0  0  0  0
  1  3  1  0  0  0  0
  1  4  1  0  0  0  0
  4  5  1  0  0  0  0
  4  6  1  0  0  0  0
  4  7  1  0  0  0  0
  7  8  1  0  0  0  0
  7  9  1  0  0  0  0
  7 10  1  0  0  0  0
 10 11  1  0  0  0  0
 10 12  1  0  0  0  0
 10 13  1  0  0  0  0
 13 14  1  0  0  0  0
 13 15  1  0  0  0  0
 13 16  1  0  0  0  0
 16 17  1  0  0  0  0
 16 18  1  0  0  0  0
 16 19  1  0  0  0  0
 19 20  1  0  0  0  0
 19 21  1  0  0  0  0
 19 22  1  0  0  0  0
  1 23  1  0  0  0  0
 23 24  1  0  0  0  0
 23 25  1  0  0  0  0
 23 26  1  0  0  0  0
M  END
> <VConfSearch Rank>
896

> <Conf_Id>
29

> <Delta U+W>
0.886

> <U+W>
22.729

> <U>
71.870

> <W>
-49.141

> <W(PB)>
-51.404

> <W(SA)>
2.262

> <Valence>
2.682

> <Coulomb>
68.933

> <VdW>
0.255

> <VdW6>
-6.833

> <VdW12>
7.088

> <Bond>
0.205

> <Angle>
1.003

> <Pdih>
1.473

> <Idih>
0.000

> <Tether>
0.000

$$$$
VeraChem MOL file


 26 25  0  0  0  0  0  0  0  0999 V2000     
   18.4258   18.0478   21.4490 N   0  3  0  0  0  0  0  0  0  0  0  0
   17.4109   18.1379   21.6124 H   0  0  0  0  0  0  0  0  0  0  0  0
   18.6883   17.1335   21.8488 H   0  0  0  0  0  0  0  0  0  0  0  0
   19.1701   19.1618   22.1569 C   0  0  0  0  0  0  0  0  0  0  0  0
   18.8555   20.1102   21.7143 H   0  0  0  0  0  0  0  0  0  0  0  0
   20.2366   19.0269   21.9612 H   0  0  0  0  0  0  0  0  0  0  0  0
   18.9209   19.1914   23.6768 C   0  0  0  0  0  0  0  0  0  0  0  0
   17.8433   19.2913   23.8626 H   0  0  0  0  0  0  0  0  0  0  0  0
   19.2226   18.2338   24.1201 H   0  0  0  0  0  0  0  0  0  0  0  0
   19.6599   20.3567   24.3805 C   0  0  0  0  0  0  0  0  0  0  0  0
   19.4273   20.3336   25.4535 H   0  0  0  0  0  0  0  0  0  0  0  0
   19.2545   21.3086   24.0107 H   0  0  0  0  0  0  0  0  0  0  0  0
   21.2001   20.3650   24.1832 C   0  0  0  0  0  0  0  0  0  0  0  0
   21.4317   20.5573   23.1269 H   0  0  0  0  0  0  0  0  0  0  0  0
   21.6196   21.2168   24.7362 H   0  0  0  0  0  0  0  0  0  0  0  0
   21.9292   19.0719   24.6290 C   0  0  0  0  0  0  0  0  0  0  0  0
   23.0037   19.1900   24.4313 H   0  0  0  0  0  0  0  0  0  0  0  0
   21.6031   18.2211   24.0159 H   0  0  0  0  0  0  0  0  0  0  0  0
   21.7324   18.7422   26.1262 C   0  0  0  0  0  0  0  0  0  0  0  0
   22.3349   17.8698   26.4104 H   0  0  0  0  0  0  0  0  0  0  0  0
   20.6848   18.5081   26.3526 H   0  0  0  0  0  0  0  0  0  0  0  0
   22.0412   19.5840   26.7594 H   0  0  0  0  0  0  0  0  0  0  0  0
   18.7321   18.0864   19.9582 C   0  0  0  0  0  0  0  0  0  0  0  0
   18.1899   17.2796   19.4601 H   0  0  0  0  0  0  0  0  0  0  0  0
   18.4158   19.0494   19.5514 H   0  0  0  0  0  0  0  0  0  0  0  0
   19.8062   17.9562   19.8087 H   0  0  0  0  0  0  0  0  0  0  0  0
  1  2  1  0  0  0  0
  1  3  1  0  0  0  0
  1  4  1  0  0  0  0
  4  5  1  0  0  0  0
  4  6  1  0  0  0  0
  4  7  1  0  0  0  0
  7  8  1  0  0  0  0
  7  9  1  0  0  0  0
  7 10  1  0  0  0  0
 10 11  1  0  0  0  0
 10 12  1  0  0  0  0
 10 13  1  0  0  0  0
 13 14  1  0  0  0  0
 13 15  1  0  0  0  0
 13 16  1  0  0  0  0
 16 17  1  0  0  0  0
 16 18  1  0  0  0  0
 16 19  1  0  0  0  0
 19 20  1  0  0  0  0
 19 21  1  0  0  0  0
 19 22  1  0  0  0  0
  1 23  1  0  0  0  0
 23 24  1  0  0  0  0
 23 25  1  0  0  0  0
 23 26  1  0  0  0  0
M  END
> <VConfSearch Rank>
897

> <Conf_Id>
82

> <Delta U+W>
1.026

> <U+W>
22.868

> <U>
72.455

> <W>
-49.586

> <W(PB)>
-51.821

> <W(SA)>
2.234

> <Valence>
2.908

> <Coulomb>
69.435

> <VdW>
0.112

> <VdW6>
-7.765

> <VdW12>
7.877

> <Bond>
0.233

> <Angle>
1.170

> <Pdih>
1.506

> <Idih>
0.000

> <Tether>
0.000

$$$$
VeraChem MOL file


 26 25  0  0  0  0  0  0  0  0999 V2000     
   20.4661   21.3055   21.9235 N   0  3  0  0  0  0  0  0  0  0  0  0
   20.7999   21.7100   22.8121 H   0  0  0  0  0  0  0  0  0  0  0  0
   19.6134   21.8349   21.6839 H   0  0  0  0  0  0  0  0  0  0  0  0
   20.1358   19.8381   22.1078 C   0  0  0  0  0  0  0  0  0  0  0  0
   21.0620   19.3175   22.3626 H   0  0  0  0  0  0  0  0  0  0  0  0
   19.7752   19.4522   21.1510 H   0  0  0  0  0  0  0  0  0  0  0  0
   19.0798   19.5837   23.2002 C   0  0  0  0  0  0  0  0  0  0  0  0
   19.4345   19.9843   24.1583 H   0  0  0  0  0  0  0  0  0  0  0  0
   18.1656   20.1395   22.9531 H   0  0  0  0  0  0  0  0  0  0  0  0
   18.7272   18.0830   23.3518 C   0  0  0  0  0  0  0  0  0  0  0  0
   18.2589   17.7329   22.4215 H   0  0  0  0  0  0  0  0  0  0  0  0
   17.9595   17.9713   24.1291 H   0  0  0  0  0  0  0  0  0  0  0  0
   19.9329   17.1600   23.6766 C   0  0  0  0  0  0  0  0  0  0  0  0
   19.5671   16.1291   23.7799 H   0  0  0  0  0  0  0  0  0  0  0  0
   20.6209   17.1436   22.8206 H   0  0  0  0  0  0  0  0  0  0  0  0
   20.7283   17.5382   24.9520 C   0  0  0  0  0  0  0  0  0  0  0  0
   21.1944   18.5252   24.8306 H   0  0  0  0  0  0  0  0  0  0  0  0
   21.5578   16.8272   25.0710 H   0  0  0  0  0  0  0  0  0  0  0  0
   19.8702   17.5208   26.2374 C   0  0  0  0  0  0  0  0  0  0  0  0
   19.0911   18.2927   26.2120 H   0  0  0  0  0  0  0  0  0  0  0  0
   20.4950   17.7108   27.1197 H   0  0  0  0  0  0  0  0  0  0  0  0
   19.3841   16.5461   26.3740 H   0  0  0  0  0  0  0  0  0  0  0  0
   21.5181   21.4665   20.8350 C   0  0  0  0  0  0  0  0  0  0  0  0
   21.1300   21.0617   19.8977 H   0  0  0  0  0  0  0  0  0  0  0  0
   21.7467   22.5275   20.7119 H   0  0  0  0  0  0  0  0  0  0  0  0
   22.4215   20.9258   21.1258 H   0  0  0  0  0  0  0  0  0  0  0  0
  1  2  1  0  0  0  0
  1  3  1  0  0  0  0
  1  4  1  0  0  0  0
  4  5  1  0  0  0  0
  4  6  1  0  0  0  0
  4  7  1  0  0  0  0
  7  8  1  0  0  0  0
  7  9  1  0  0  0  0
  7 10  1  0  0  0  0
 10 11  1  0  0  0  0
 10 12  1  0  0  0  0
 10 13  1  0  0  0  0
 13 14  1  0  0  0  0
 13 15  1  0  0  0  0
 13 16  1  0  0  0  0
 16 17  1  0  0  0  0
 16 18  1  0  0  0  0
 16 19  1  0  0  0  0
 19 20  1  0  0  0  0
 19 21  1  0  0  0  0
 19 22  1  0  0  0  0
  1 23  1  0  0  0  0
 23 24  1  0  0  0  0
 23 25  1  0  0  0  0
 23 26  1  0  0  0  0
M  END
> <VConfSearch Rank>
898

> <Conf_Id>
71

> <Delta U+W>
1.096

> <U+W>
22.938

> <U>
72.455

> <W>
-49.517

> <W(PB)>
-51.795

> <W(SA)>
2.278

> <Valence>
2.908

> <Coulomb>
69.435

> <VdW>
0.112

> <VdW6>
-7.766

> <VdW12>
7.877

> <Bond>
0.233

> <Angle>
1.170

> <Pdih>
1.506

> <Idih>
0.000

> <Tether>
0.000

$$$$
VeraChem MOL file


 26 25  0  0  0  0  0  0  0  0999 V2000     
   20.4101   19.8994   25.5621 N   0  3  0  0  0  0  0  0  0  0  0  0
   20.6630   20.4415   24.7226 H   0  0  0  0  0  0  0  0  0  0  0  0
   21.2206   19.9878   26.1954 H   0  0  0  0  0  0  0  0  0  0  0  0
   20.2064   18.4381   25.1947 C   0  0  0  0  0  0  0  0  0  0  0  0
   19.9223   17.9037   26.1047 H   0  0  0  0  0  0  0  0  0  0  0  0
   21.1719   18.0466   24.8654 H   0  0  0  0  0  0  0  0  0  0  0  0
   19.1536   18.1790   24.0930 C   0  0  0  0  0  0  0  0  0  0  0  0
   19.0990   17.0980   23.9080 H   0  0  0  0  0  0  0  0  0  0  0  0
   18.1621   18.4716   24.4620 H   0  0  0  0  0  0  0  0  0  0  0  0
   19.4383   18.9117   22.7576 C   0  0  0  0  0  0  0  0  0  0  0  0
   19.4162   19.9980   22.9163 H   0  0  0  0  0  0  0  0  0  0  0  0
   18.6165   18.6879   22.0652 H   0  0  0  0  0  0  0  0  0  0  0  0
   20.7863   18.5016   22.1115 C   0  0  0  0  0  0  0  0  0  0  0  0
   21.6067   18.6969   22.8144 H   0  0  0  0  0  0  0  0  0  0  0  0
   20.7923   17.4191   21.9236 H   0  0  0  0  0  0  0  0  0  0  0  0
   21.0928   19.2554   20.7945 C   0  0  0  0  0  0  0  0  0  0  0  0
   22.1083   18.9924   20.4669 H   0  0  0  0  0  0  0  0  0  0  0  0
   21.1011   20.3388   20.9789 H   0  0  0  0  0  0  0  0  0  0  0  0
   20.1032   18.9298   19.6524 C   0  0  0  0  0  0  0  0  0  0  0  0
   19.0920   19.2895   19.8788 H   0  0  0  0  0  0  0  0  0  0  0  0
   20.0517   17.8485   19.4704 H   0  0  0  0  0  0  0  0  0  0  0  0
   20.4222   19.4118   18.7192 H   0  0  0  0  0  0  0  0  0  0  0  0
   19.1665   20.4792   26.2260 C   0  0  0  0  0  0  0  0  0  0  0  0
   19.3603   21.5180   26.5024 H   0  0  0  0  0  0  0  0  0  0  0  0
   18.3299   20.4353   25.5258 H   0  0  0  0  0  0  0  0  0  0  0  0
   18.9329   19.8971   27.1201 H   0  0  0  0  0  0  0  0  0  0  0  0
  1  2  1  0  0  0  0
  1  3  1  0  0  0  0
  1  4  1  0  0  0  0
  4  5  1  0  0  0  0
  4  6  1  0  0  0  0
  4  7  1  0  0  0  0
  7  8  1  0  0  0  0
  7  9  1  0  0  0  0
  7 10  1  0  0  0  0
 10 11  1  0  0  0  0
 10 12  1  0  0  0  0
 10 13  1  0  0  0  0
 13 14  1  0  0  0  0
 13 15  1  0  0  0  0
 13 16  1  0  0  0  0
 16 17  1  0  0  0  0
 16 18  1  0  0  0  0
 16 19  1  0  0  0  0
 19 20  1  0  0  0  0
 19 21  1  0  0  0  0
 19 22  1  0  0  0  0
  1 23  1  0  0  0  0
 23 24  1  0  0  0  0
 23 25  1  0  0  0  0
 23 26  1  0  0  0  0
M  END
> <VConfSearch Rank>
899

> <Conf_Id>
84

> <Delta U+W>
1.456

> <U+W>
23.298

> <U>
73.042

> <W>
-49.744

> <W(PB)>
-51.966

> <W(SA)>
2.222

> <Valence>
2.938

> <Coulomb>
69.625

> <VdW>
0.478

> <VdW6>
-8.182

> <VdW12>
8.660

> <Bond>
0.253

> <Angle>
1.038

> <Pdih>
1.647

> <Idih>
0.000

> <Tether>
0.000

$$$$
VeraChem MOL file


 26 25  0  0  0  0  0  0  0  0999 V2000     
   20.0513   21.2741   24.2655 N   0  3  0  0  0  0  0  0  0  0  0  0
   19.7204   21.0852   23.3074 H   0  0  0  0  0  0  0  0  0  0  0  0
   20.8487   21.9206   24.1609 H   0  0  0  0  0  0  0  0  0  0  0  0
   20.5078   19.9846   24.9193 C   0  0  0  0  0  0  0  0  0  0  0  0
   19.6384   19.3301   25.0161 H   0  0  0  0  0  0  0  0  0  0  0  0
   20.8612   20.2298   25.9241 H   0  0  0  0  0  0  0  0  0  0  0  0
   21.6264   19.2551   24.1468 C   0  0  0  0  0  0  0  0  0  0  0  0
   22.5128   19.9017   24.1014 H   0  0  0  0  0  0  0  0  0  0  0  0
   21.9257   18.3663   24.7180 H   0  0  0  0  0  0  0  0  0  0  0  0
   21.2284   18.8290   22.7110 C   0  0  0  0  0  0  0  0  0  0  0  0
   22.0897   18.3323   22.2433 H   0  0  0  0  0  0  0  0  0  0  0  0
   21.0221   19.7181   22.1003 H   0  0  0  0  0  0  0  0  0  0  0  0
   20.0107   17.8742   22.6737 C   0  0  0  0  0  0  0  0  0  0  0  0
   20.2122   16.9978   23.3051 H   0  0  0  0  0  0  0  0  0  0  0  0
   19.1277   18.3731   23.0950 H   0  0  0  0  0  0  0  0  0  0  0  0
   19.6900   17.4088   21.2358 C   0  0  0  0  0  0  0  0  0  0  0  0
   20.5637   16.8981   20.8070 H   0  0  0  0  0  0  0  0  0  0  0  0
   19.4894   18.2818   20.5989 H   0  0  0  0  0  0  0  0  0  0  0  0
   18.4738   16.4589   21.1998 C   0  0  0  0  0  0  0  0  0  0  0  0
   18.6576   15.5590   21.8012 H   0  0  0  0  0  0  0  0  0  0  0  0
   18.2622   16.1388   20.1713 H   0  0  0  0  0  0  0  0  0  0  0  0
   17.5747   16.9532   21.5902 H   0  0  0  0  0  0  0  0  0  0  0  0
   18.9477   21.9144   25.0957 C   0  0  0  0  0  0  0  0  0  0  0  0
   19.3308   22.1322   26.0951 H   0  0  0  0  0  0  0  0  0  0  0  0
   18.6280   22.8407   24.6132 H   0  0  0  0  0  0  0  0  0  0  0  0
   18.1041   21.2242   25.1651 H   0  0  0  0  0  0  0  0  0  0  0  0
  1  2  1  0  0  0  0
  1  3  1  0  0  0  0
  1  4  1  0  0  0  0
  4  5  1  0  0  0  0
  4  6  1  0  0  0  0
  4  7  1  0  0  0  0
  7  8  1  0  0  0  0
  7  9  1  0  0  0  0
  7 10  1  0  0  0  0
 10 11  1  0  0  0  0
 10 12  1  0  0  0  0
 10 13  1  0  0  0  0
 13 14  1  0  0  0  0
 13 15  1  0  0  0  0
 13 16  1  0  0  0  0
 16 17  1  0  0  0  0
 16 18  1  0  0  0  0
 16 19  1  0  0  0  0
 19 20  1  0  0  0  0
 19 21  1  0  0  0  0
 19 22  1  0  0  0  0
  1 23  1  0  0  0  0
 23 24  1  0  0  0  0
 23 25  1  0  0  0  0
 23 26  1  0  0  0  0
M  END
> <VConfSearch Rank>
900

> <Conf_Id>
73

> <Delta U+W>
0.884

> <U+W>
22.726

> <U>
71.905

> <W>
-49.179

> <W(PB)>
-51.494

> <W(SA)>
2.315

> <Valence>
2.125

> <Coulomb>
69.686

> <VdW>
0.093

> <VdW6>
-6.766

> <VdW12>
6.859

> <Bond>
0.169

> <Angle>
0.621

> <Pdih>
1.336

> <Idih>
0.000

> <Tether>
0.000

$$$$
VeraChem MOL file


 26 25  0  0  0  0  0  0  0  0999 V2000     
   22.2929   17.7195   25.1779 N   0  3  0  0  0  0  0  0  0  0  0  0
   22.2086   16.7728   24.7760 H   0  0  0  0  0  0  0  0  0  0  0  0
   21.7144   17.7074   26.0324 H   0  0  0  0  0  0  0  0  0  0  0  0
   21.7630   18.7509   24.2021 C   0  0  0  0  0  0  0  0  0  0  0  0
   22.3957   18.7259   23.3113 H   0  0  0  0  0  0  0  0  0  0  0  0
   21.8624   19.7348   24.6675 H   0  0  0  0  0  0  0  0  0  0  0  0
   20.2956   18.5131   23.8020 C   0  0  0  0  0  0  0  0  0  0  0  0
   20.1973   17.5170   23.3501 H   0  0  0  0  0  0  0  0  0  0  0  0
   19.6658   18.5226   24.7017 H   0  0  0  0  0  0  0  0  0  0  0  0
   19.7995   19.5867   22.8082 C   0  0  0  0  0  0  0  0  0  0  0  0
   20.4354   19.5776   21.9119 H   0  0  0  0  0  0  0  0  0  0  0  0
   19.9047   20.5821   23.2619 H   0  0  0  0  0  0  0  0  0  0  0  0
   18.3265   19.3580   22.3993 C   0  0  0  0  0  0  0  0  0  0  0  0
   18.2211   18.3628   21.9455 H   0  0  0  0  0  0  0  0  0  0  0  0
   17.6905   19.3672   23.2954 H   0  0  0  0  0  0  0  0  0  0  0  0
   17.8306   20.4320   21.4053 C   0  0  0  0  0  0  0  0  0  0  0  0
   18.4623   20.4252   20.5058 H   0  0  0  0  0  0  0  0  0  0  0  0
   17.9316   21.4295   21.8556 H   0  0  0  0  0  0  0  0  0  0  0  0
   16.3595   20.2004   20.9992 C   0  0  0  0  0  0  0  0  0  0  0  0
   16.0259   20.9724   20.2937 H   0  0  0  0  0  0  0  0  0  0  0  0
   15.6979   20.2359   21.8746 H   0  0  0  0  0  0  0  0  0  0  0  0
   16.2326   19.2237   20.5143 H   0  0  0  0  0  0  0  0  0  0  0  0
   23.7442   18.0272   25.5199 C   0  0  0  0  0  0  0  0  0  0  0  0
   23.8038   19.0190   25.9735 H   0  0  0  0  0  0  0  0  0  0  0  0
   24.1133   17.2772   26.2230 H   0  0  0  0  0  0  0  0  0  0  0  0
   24.3418   18.0016   24.6059 H   0  0  0  0  0  0  0  0  0  0  0  0
  1  2  1  0  0  0  0
  1  3  1  0  0  0  0
  1  4  1  0  0  0  0
  4  5  1  0  0  0  0
  4  6  1  0  0  0  0
  4  7  1  0  0  0  0
  7  8  1  0  0  0  0
  7  9  1  0  0  0  0
  7 10  1  0  0  0  0
 10 11  1  0  0  0  0
 10 12  1  0  0  0  0
 10 13  1  0  0  0  0
 13 14  1  0  0  0  0
 13 15  1  0  0  0  0
 13 16  1  0  0  0  0
 16 17  1  0  0  0  0
 16 18  1  0  0  0  0
 16 19  1  0  0  0  0
 19 20  1  0  0  0  0
 19 21  1  0  0  0  0
 19 22  1  0  0  0  0
  1 23  1  0  0  0  0
 23 24  1  0  0  0  0
 23 25  1  0  0  0  0
 23 26  1  0  0  0  0
M  END
> <VConfSearch Rank>
901

> <Conf_Id>
11

> <Delta U+W>
0.000

> <U+W>
21.842

> <U>
70.357

> <W>
-48.515

> <W(PB)>
-50.856

> <W(SA)>
2.341

> <Valence>
1.714

> <Coulomb>
68.480

> <VdW>
0.163

> <VdW6>
-5.268

> <VdW12>
5.431

> <Bond>
0.126

> <Angle>
0.350

> <Pdih>
1.238

> <Idih>
0.000

> <Tether>
0.000

$$$$
VeraChem MOL file


 26 25  0  0  0  0  0  0  0  0999 V2000     
   20.8761   17.2575   20.5314 N   0  3  0  0  0  0  0  0  0  0  0  0
   21.5452   16.5127   20.2792 H   0  0  0  0  0  0  0  0  0  0  0  0
   21.1807   18.0825   19.9918 H   0  0  0  0  0  0  0  0  0  0  0  0
   20.9689   17.5407   22.0215 C   0  0  0  0  0  0  0  0  0  0  0  0
   22.0276   17.6659   22.2627 H   0  0  0  0  0  0  0  0  0  0  0  0
   20.6016   16.6605   22.5550 H   0  0  0  0  0  0  0  0  0  0  0  0
   20.1984   18.7940   22.4842 C   0  0  0  0  0  0  0  0  0  0  0  0
   20.5392   19.6644   21.9079 H   0  0  0  0  0  0  0  0  0  0  0  0
   19.1278   18.6693   22.2766 H   0  0  0  0  0  0  0  0  0  0  0  0
   20.4032   19.0565   23.9927 C   0  0  0  0  0  0  0  0  0  0  0  0
   21.4753   19.1794   24.2008 H   0  0  0  0  0  0  0  0  0  0  0  0
   20.0670   18.1808   24.5654 H   0  0  0  0  0  0  0  0  0  0  0  0
   19.6369   20.3114   24.4695 C   0  0  0  0  0  0  0  0  0  0  0  0
   19.9729   21.1870   23.8968 H   0  0  0  0  0  0  0  0  0  0  0  0
   18.5649   20.1886   24.2618 H   0  0  0  0  0  0  0  0  0  0  0  0
   19.8421   20.5736   25.9783 C   0  0  0  0  0  0  0  0  0  0  0  0
   20.9130   20.6998   26.1909 H   0  0  0  0  0  0  0  0  0  0  0  0
   19.5052   19.7013   26.5559 H   0  0  0  0  0  0  0  0  0  0  0  0
   19.0754   21.8274   26.4508 C   0  0  0  0  0  0  0  0  0  0  0  0
   19.2332   21.9969   27.5238 H   0  0  0  0  0  0  0  0  0  0  0  0
   17.9961   21.7170   26.2826 H   0  0  0  0  0  0  0  0  0  0  0  0
   19.4150   22.7233   25.9149 H   0  0  0  0  0  0  0  0  0  0  0  0
   19.4643   16.8408   20.1348 C   0  0  0  0  0  0  0  0  0  0  0  0
   18.7729   17.6592   20.3449 H   0  0  0  0  0  0  0  0  0  0  0  0
   19.4465   16.6105   19.0672 H   0  0  0  0  0  0  0  0  0  0  0  0
   19.1771   15.9562   20.7074 H   0  0  0  0  0  0  0  0  0  0  0  0
  1  2  1  0  0  0  0
  1  3  1  0  0  0  0
  1  4  1  0  0  0  0
  4  5  1  0  0  0  0
  4  6  1  0  0  0  0
  4  7  1  0  0  0  0
  7  8  1  0  0  0  0
  7  9  1  0  0  0  0
  7 10  1  0  0  0  0
 10 11  1  0  0  0  0
 10 12  1  0  0  0  0
 10 13  1  0  0  0  0
 13 14  1  0  0  0  0
 13 15  1  0  0  0  0
 13 16  1  0  0  0  0
 16 17  1  0  0  0  0
 16 18  1  0  0  0  0
 16 19  1  0  0  0  0
 19 20  1  0  0  0  0
 19 21  1  0  0  0  0
 19 22  1  0  0  0  0
  1 23  1  0  0  0  0
 23 24  1  0  0  0  0
 23 25  1  0  0  0  0
 23 26  1  0  0  0  0
M  END
> <VConfSearch Rank>
902

> <Conf_Id>
102

> <Delta U+W>
0.121

> <U+W>
21.963

> <U>
70.745

> <W>
-48.782

> <W(PB)>
-51.111

> <W(SA)>
2.329

> <Valence>
1.993

> <Coulomb>
68.323

> <VdW>
0.429

> <VdW6>
-5.973

> <VdW12>
6.402

> <Bond>
0.161

> <Angle>
0.472

> <Pdih>
1.360

> <Idih>
0.000

> <Tether>
0.000

$$$$
VeraChem MOL file


 26 25  0  0  0  0  0  0  0  0999 V2000     
   21.9121   17.1327   25.3806 N   0  3  0  0  0  0  0  0  0  0  0  0
   21.5423   16.2434   25.0106 H   0  0  0  0  0  0  0  0  0  0  0  0
   22.0037   16.9802   26.3976 H   0  0  0  0  0  0  0  0  0  0  0  0
   20.9260   18.2597   25.1224 C   0  0  0  0  0  0  0  0  0  0  0  0
   21.3704   19.1871   25.4923 H   0  0  0  0  0  0  0  0  0  0  0  0
   20.0325   18.0515   25.7165 H   0  0  0  0  0  0  0  0  0  0  0  0
   20.5172   18.4268   23.6448 C   0  0  0  0  0  0  0  0  0  0  0  0
   21.4010   18.6676   23.0399 H   0  0  0  0  0  0  0  0  0  0  0  0
   20.1179   17.4760   23.2677 H   0  0  0  0  0  0  0  0  0  0  0  0
   19.4587   19.5391   23.4753 C   0  0  0  0  0  0  0  0  0  0  0  0
   19.8597   20.4874   23.8597 H   0  0  0  0  0  0  0  0  0  0  0  0
   18.5746   19.2990   24.0823 H   0  0  0  0  0  0  0  0  0  0  0  0
   19.0390   19.7163   21.9982 C   0  0  0  0  0  0  0  0  0  0  0  0
   19.9228   19.9568   21.3911 H   0  0  0  0  0  0  0  0  0  0  0  0
   18.6383   18.7681   21.6136 H   0  0  0  0  0  0  0  0  0  0  0  0
   17.9802   20.8288   21.8290 C   0  0  0  0  0  0  0  0  0  0  0  0
   18.3772   21.7801   22.2103 H   0  0  0  0  0  0  0  0  0  0  0  0
   17.0927   20.5915   22.4324 H   0  0  0  0  0  0  0  0  0  0  0  0
   17.5638   21.0029   20.3528 C   0  0  0  0  0  0  0  0  0  0  0  0
   18.4252   21.2749   19.7289 H   0  0  0  0  0  0  0  0  0  0  0  0
   16.8120   21.7965   20.2531 H   0  0  0  0  0  0  0  0  0  0  0  0
   17.1308   20.0768   19.9527 H   0  0  0  0  0  0  0  0  0  0  0  0
   23.2779   17.4445   24.7792 C   0  0  0  0  0  0  0  0  0  0  0  0
   23.6514   18.3794   25.2025 H   0  0  0  0  0  0  0  0  0  0  0  0
   23.9669   16.6310   25.0169 H   0  0  0  0  0  0  0  0  0  0  0  0
   23.1830   17.5398   23.6957 H   0  0  0  0  0  0  0  0  0  0  0  0
  1  2  1  0  0  0  0
  1  3  1  0  0  0  0
  1  4  1  0  0  0  0
  4  5  1  0  0  0  0
  4  6  1  0  0  0  0
  4  7  1  0  0  0  0
  7  8  1  0  0  0  0
  7  9  1  0  0  0  0
  7 10  1  0  0  0  0
 10 11  1  0  0  0  0
 10 12  1  0  0  0  0
 10 13  1  0  0  0  0
 13 14  1  0  0  0  0
 13 15  1  0  0  0  0
 13 16  1  0  0  0  0
 16 17  1  0  0  0  0
 16 18  1  0  0  0  0
 16 19  1  0  0  0  0
 19 20  1  0  0  0  0
 19 21  1  0  0  0  0
 19 22  1  0  0  0  0
  1 23  1  0  0  0  0
 23 24  1  0  0  0  0
 23 25  1  0  0  0  0
 23 26  1  0  0  0  0
M  END
> <VConfSearch Rank>
903

> <Conf_Id>
37

> <Delta U+W>
0.125

> <U+W>
21.967

> <U>
70.745

> <W>
-48.778

> <W(PB)>
-51.115

> <W(SA)>
2.337

> <Valence>
1.993

> <Coulomb>
68.323

> <VdW>
0.429

> <VdW6>
-5.973

> <VdW12>
6.403

> <Bond>
0.161

> <Angle>
0.472

> <Pdih>
1.360

> <Idih>
0.000

> <Tether>
0.000

$$$$
VeraChem MOL file


 26 25  0  0  0  0  0  0  0  0999 V2000     
   22.5960   17.9914   22.0808 N   0  3  0  0  0  0  0  0  0  0  0  0
   23.2806   18.7481   21.9275 H   0  0  0  0  0  0  0  0  0  0  0  0
   22.2103   17.7771   21.1480 H   0  0  0  0  0  0  0  0  0  0  0  0
   21.4932   18.4637   23.0068 C   0  0  0  0  0  0  0  0  0  0  0  0
   21.9435   18.6895   23.9767 H   0  0  0  0  0  0  0  0  0  0  0  0
   20.7914   17.6365   23.1365 H   0  0  0  0  0  0  0  0  0  0  0  0
   20.7467   19.7048   22.4806 C   0  0  0  0  0  0  0  0  0  0  0  0
   21.4712   20.5123   22.3104 H   0  0  0  0  0  0  0  0  0  0  0  0
   20.2936   19.4785   21.5062 H   0  0  0  0  0  0  0  0  0  0  0  0
   19.6566   20.2078   23.4566 C   0  0  0  0  0  0  0  0  0  0  0  0
   19.2536   21.1506   23.0647 H   0  0  0  0  0  0  0  0  0  0  0  0
   20.1146   20.4442   24.4270 H   0  0  0  0  0  0  0  0  0  0  0  0
   18.5027   19.1919   23.6558 C   0  0  0  0  0  0  0  0  0  0  0  0
   18.0318   18.9714   22.6879 H   0  0  0  0  0  0  0  0  0  0  0  0
   18.9096   18.2412   24.0248 H   0  0  0  0  0  0  0  0  0  0  0  0
   17.4238   19.6734   24.6563 C   0  0  0  0  0  0  0  0  0  0  0  0
   17.8874   19.8846   25.6301 H   0  0  0  0  0  0  0  0  0  0  0  0
   16.7118   18.8538   24.8271 H   0  0  0  0  0  0  0  0  0  0  0  0
   16.6427   20.9161   24.1712 C   0  0  0  0  0  0  0  0  0  0  0  0
   17.2891   21.7998   24.1059 H   0  0  0  0  0  0  0  0  0  0  0  0
   15.8295   21.1546   24.8689 H   0  0  0  0  0  0  0  0  0  0  0  0
   16.1965   20.7417   23.1836 H   0  0  0  0  0  0  0  0  0  0  0  0
   23.2784   16.7653   22.6713 C   0  0  0  0  0  0  0  0  0  0  0  0
   22.5419   15.9680   22.7931 H   0  0  0  0  0  0  0  0  0  0  0  0
   24.0703   16.4356   21.9950 H   0  0  0  0  0  0  0  0  0  0  0  0
   23.7067   17.0251   23.6419 H   0  0  0  0  0  0  0  0  0  0  0  0
  1  2  1  0  0  0  0
  1  3  1  0  0  0  0
  1  4  1  0  0  0  0
  4  5  1  0  0  0  0
  4  6  1  0  0  0  0
  4  7  1  0  0  0  0
  7  8  1  0  0  0  0
  7  9  1  0  0  0  0
  7 10  1  0  0  0  0
 10 11  1  0  0  0  0
 10 12  1  0  0  0  0
 10 13  1  0  0  0  0
 13 14  1  0  0  0  0
 13 15  1  0  0  0  0
 13 16  1  0  0  0  0
 16 17  1  0  0  0  0
 16 18  1  0  0  0  0
 16 19  1  0  0  0  0
 19 20  1  0  0  0  0
 19 21  1  0  0  0  0
 19 22  1  0  0  0  0
  1 23  1  0  0  0  0
 23 24  1  0  0  0  0
 23 25  1  0  0  0  0
 23 26  1  0  0  0  0
M  END
> <VConfSearch Rank>
904

> <Conf_Id>
137

> <Delta U+W>
1.038

> <U+W>
22.880

> <U>
71.810

> <W>
-48.930

> <W(PB)>
-51.257

> <W(SA)>
2.327

> <Valence>
2.568

> <Coulomb>
68.877

> <VdW>
0.364

> <VdW6>
-6.470

> <VdW12>
6.834

> <Bond>
0.191

> <Angle>
0.752

> <Pdih>
1.626

> <Idih>
0.000

> <Tether>
0.000

$$$$
VeraChem MOL file


 26 25  0  0  0  0  0  0  0  0999 V2000     
   21.3196   17.7379   20.9390 N   0  3  0  0  0  0  0  0  0  0  0  0
   22.2340   17.9888   21.3461 H   0  0  0  0  0  0  0  0  0  0  0  0
   21.0964   18.4969   20.2764 H   0  0  0  0  0  0  0  0  0  0  0  0
   20.2653   17.6654   22.0254 C   0  0  0  0  0  0  0  0  0  0  0  0
   20.5421   16.8579   22.7079 H   0  0  0  0  0  0  0  0  0  0  0  0
   19.3146   17.4061   21.5528 H   0  0  0  0  0  0  0  0  0  0  0  0
   20.1110   18.9791   22.8131 C   0  0  0  0  0  0  0  0  0  0  0  0
   21.0758   19.2385   23.2667 H   0  0  0  0  0  0  0  0  0  0  0  0
   19.8488   19.7904   22.1211 H   0  0  0  0  0  0  0  0  0  0  0  0
   19.0236   18.8551   23.9064 C   0  0  0  0  0  0  0  0  0  0  0  0
   19.3097   18.0764   24.6271 H   0  0  0  0  0  0  0  0  0  0  0  0
   18.0877   18.5151   23.4414 H   0  0  0  0  0  0  0  0  0  0  0  0
   18.7450   20.1805   24.6577 C   0  0  0  0  0  0  0  0  0  0  0  0
   18.4417   20.9547   23.9393 H   0  0  0  0  0  0  0  0  0  0  0  0
   17.8861   20.0277   25.3258 H   0  0  0  0  0  0  0  0  0  0  0  0
   19.9466   20.6849   25.4919 C   0  0  0  0  0  0  0  0  0  0  0  0
   20.7937   20.9200   24.8340 H   0  0  0  0  0  0  0  0  0  0  0  0
   20.2835   19.8923   26.1746 H   0  0  0  0  0  0  0  0  0  0  0  0
   19.5840   21.9434   26.3092 C   0  0  0  0  0  0  0  0  0  0  0  0
   19.2713   22.7647   25.6512 H   0  0  0  0  0  0  0  0  0  0  0  0
   20.4475   22.2892   26.8921 H   0  0  0  0  0  0  0  0  0  0  0  0
   18.7654   21.7369   27.0109 H   0  0  0  0  0  0  0  0  0  0  0  0
   21.4070   16.4031   20.2120 C   0  0  0  0  0  0  0  0  0  0  0  0
   20.4383   16.1751   19.7620 H   0  0  0  0  0  0  0  0  0  0  0  0
   22.1695   16.4689   19.4326 H   0  0  0  0  0  0  0  0  0  0  0  0
   21.6764   15.6220   20.9264 H   0  0  0  0  0  0  0  0  0  0  0  0
  1  2  1  0  0  0  0
  1  3  1  0  0  0  0
  1  4  1  0  0  0  0
  4  5  1  0  0  0  0
  4  6  1  0  0  0  0
  4  7  1  0  0  0  0
  7  8  1  0  0  0  0
  7  9  1  0  0  0  0
  7 10  1  0  0  0  0
 10 11  1  0  0  0  0
 10 12  1  0  0  0  0
 10 13  1  0  0  0  0
 13 14  1  0  0  0  0
 13 15  1  0  0  0  0
 13 16  1  0  0  0  0
 16 17  1  0  0  0  0
 16 18  1  0  0  0  0
 16 19  1  0  0  0  0
 19 20  1  0  0  0  0
 19 21  1  0  0  0  0
 19 22  1  0  0  0  0
  1 23  1  0  0  0  0
 23 24  1  0  0  0  0
 23 25  1  0  0  0  0
 23 26  1  0  0  0  0
M  END
> <VConfSearch Rank>
905

> <Conf_Id>
35

> <Delta U+W>
0.670

> <U+W>
22.512

> <U>
71.348

> <W>
-48.837

> <W(PB)>
-51.150

> <W(SA)>
2.313

> <Valence>
2.262

> <Coulomb>
68.807

> <VdW>
0.280

> <VdW6>
-5.915

> <VdW12>
6.195

> <Bond>
0.164

> <Angle>
0.622

> <Pdih>
1.475

> <Idih>
0.000

> <Tether>
0.000

$$$$
VeraChem MOL file


 26 25  0  0  0  0  0  0  0  0999 V2000     
   20.3821   21.1634   25.3614 N   0  3  0  0  0  0  0  0  0  0  0  0
   20.9325   21.7943   24.7582 H   0  0  0  0  0  0  0  0  0  0  0  0
   21.0715   20.5359   25.8039 H   0  0  0  0  0  0  0  0  0  0  0  0
   19.4053   20.3611   24.5253 C   0  0  0  0  0  0  0  0  0  0  0  0
   18.7004   21.0611   24.0697 H   0  0  0  0  0  0  0  0  0  0  0  0
   18.8502   19.7024   25.1980 H   0  0  0  0  0  0  0  0  0  0  0  0
   20.0871   19.5245   23.4275 C   0  0  0  0  0  0  0  0  0  0  0  0
   20.6567   20.1886   22.7638 H   0  0  0  0  0  0  0  0  0  0  0  0
   20.8054   18.8395   23.8952 H   0  0  0  0  0  0  0  0  0  0  0  0
   19.0499   18.7274   22.6016 C   0  0  0  0  0  0  0  0  0  0  0  0
   18.2944   19.4234   22.2110 H   0  0  0  0  0  0  0  0  0  0  0  0
   18.5134   18.0271   23.2569 H   0  0  0  0  0  0  0  0  0  0  0  0
   19.6673   17.9540   21.4102 C   0  0  0  0  0  0  0  0  0  0  0  0
   18.8508   17.5184   20.8177 H   0  0  0  0  0  0  0  0  0  0  0  0
   20.1886   18.6564   20.7453 H   0  0  0  0  0  0  0  0  0  0  0  0
   20.6348   16.8249   21.8382 C   0  0  0  0  0  0  0  0  0  0  0  0
   20.1297   16.1508   22.5441 H   0  0  0  0  0  0  0  0  0  0  0  0
   21.5011   17.2466   22.3649 H   0  0  0  0  0  0  0  0  0  0  0  0
   21.1345   16.0127   20.6243 C   0  0  0  0  0  0  0  0  0  0  0  0
   20.2980   15.5395   20.0937 H   0  0  0  0  0  0  0  0  0  0  0  0
   21.8213   15.2187   20.9452 H   0  0  0  0  0  0  0  0  0  0  0  0
   21.6707   16.6548   19.9135 H   0  0  0  0  0  0  0  0  0  0  0  0
   19.6281   21.9584   26.4184 C   0  0  0  0  0  0  0  0  0  0  0  0
   19.0805   21.2683   27.0641 H   0  0  0  0  0  0  0  0  0  0  0  0
   20.3429   22.5315   27.0132 H   0  0  0  0  0  0  0  0  0  0  0  0
   18.9293   22.6381   25.9260 H   0  0  0  0  0  0  0  0  0  0  0  0
  1  2  1  0  0  0  0
  1  3  1  0  0  0  0
  1  4  1  0  0  0  0
  4  5  1  0  0  0  0
  4  6  1  0  0  0  0
  4  7  1  0  0  0  0
  7  8  1  0  0  0  0
  7  9  1  0  0  0  0
  7 10  1  0  0  0  0
 10 11  1  0  0  0  0
 10 12  1  0  0  0  0
 10 13  1  0  0  0  0
 13 14  1  0  0  0  0
 13 15  1  0  0  0  0
 13 16  1  0  0  0  0
 16 17  1  0  0  0  0
 16 18  1  0  0  0  0
 16 19  1  0  0  0  0
 19 20  1  0  0  0  0
 19 21  1  0  0  0  0
 19 22  1  0  0  0  0
  1 23  1  0  0  0  0
 23 24  1  0  0  0  0
 23 25  1  0  0  0  0
 23 26  1  0  0  0  0
M  END
> <VConfSearch Rank>
906

> <Conf_Id>
36

> <Delta U+W>
0.662

> <U+W>
22.504

> <U>
71.348

> <W>
-48.844

> <W(PB)>
-51.157

> <W(SA)>
2.313

> <Valence>
2.262

> <Coulomb>
68.807

> <VdW>
0.280

> <VdW6>
-5.916

> <VdW12>
6.195

> <Bond>
0.164

> <Angle>
0.622

> <Pdih>
1.475

> <Idih>
0.000

> <Tether>
0.000

$$$$
VeraChem MOL file


 26 25  0  0  0  0  0  0  0  0999 V2000     
   21.8827   16.7317   22.6002 N   0  3  0  0  0  0  0  0  0  0  0  0
   22.3521   17.1601   21.7872 H   0  0  0  0  0  0  0  0  0  0  0  0
   21.4078   15.8928   22.2322 H   0  0  0  0  0  0  0  0  0  0  0  0
   20.8677   17.6932   23.1847 C   0  0  0  0  0  0  0  0  0  0  0  0
   21.4111   18.5653   23.5560 H   0  0  0  0  0  0  0  0  0  0  0  0
   20.3874   17.1991   24.0330 H   0  0  0  0  0  0  0  0  0  0  0  0
   19.7968   18.1388   22.1704 C   0  0  0  0  0  0  0  0  0  0  0  0
   20.2795   18.6338   21.3172 H   0  0  0  0  0  0  0  0  0  0  0  0
   19.2882   17.2508   21.7721 H   0  0  0  0  0  0  0  0  0  0  0  0
   18.7422   19.0849   22.7917 C   0  0  0  0  0  0  0  0  0  0  0  0
   18.2416   18.5768   23.6277 H   0  0  0  0  0  0  0  0  0  0  0  0
   17.9651   19.2870   22.0415 H   0  0  0  0  0  0  0  0  0  0  0  0
   19.3406   20.4267   23.2788 C   0  0  0  0  0  0  0  0  0  0  0  0
   20.0847   20.2427   24.0653 H   0  0  0  0  0  0  0  0  0  0  0  0
   19.8690   20.9161   22.4489 H   0  0  0  0  0  0  0  0  0  0  0  0
   18.2513   21.3764   23.8253 C   0  0  0  0  0  0  0  0  0  0  0  0
   17.7188   20.8914   24.6555 H   0  0  0  0  0  0  0  0  0  0  0  0
   17.5049   21.5747   23.0433 H   0  0  0  0  0  0  0  0  0  0  0  0
   18.8494   22.7135   24.3123 C   0  0  0  0  0  0  0  0  0  0  0  0
   19.5748   22.5509   25.1201 H   0  0  0  0  0  0  0  0  0  0  0  0
   18.0609   23.3740   24.6959 H   0  0  0  0  0  0  0  0  0  0  0  0
   19.3602   23.2387   23.4947 H   0  0  0  0  0  0  0  0  0  0  0  0
   22.9020   16.3453   23.6630 C   0  0  0  0  0  0  0  0  0  0  0  0
   22.3864   15.8648   24.4973 H   0  0  0  0  0  0  0  0  0  0  0  0
   23.6268   15.6527   23.2292 H   0  0  0  0  0  0  0  0  0  0  0  0
   23.4146   17.2442   24.0127 H   0  0  0  0  0  0  0  0  0  0  0  0
  1  2  1  0  0  0  0
  1  3  1  0  0  0  0
  1  4  1  0  0  0  0
  4  5  1  0  0  0  0
  4  6  1  0  0  0  0
  4  7  1  0  0  0  0
  7  8  1  0  0  0  0
  7  9  1  0  0  0  0
  7 10  1  0  0  0  0
 10 11  1  0  0  0  0
 10 12  1  0  0  0  0
 10 13  1  0  0  0  0
 13 14  1  0  0  0  0
 13 15  1  0  0  0  0
 13 16  1  0  0  0  0
 16 17  1  0  0  0  0
 16 18  1  0  0  0  0
 16 19  1  0  0  0  0
 19 20  1  0  0  0  0
 19 21  1  0  0  0  0
 19 22  1  0  0  0  0
  1 23  1  0  0  0  0
 23 24  1  0  0  0  0
 23 25  1  0  0  0  0
 23 26  1  0  0  0  0
M  END
> <VConfSearch Rank>
907

> <Conf_Id>
46

> <Delta U+W>
0.496

> <U+W>
22.338

> <U>
71.138

> <W>
-48.799

> <W(PB)>
-51.136

> <W(SA)>
2.337

> <Valence>
2.016

> <Coulomb>
68.932

> <VdW>
0.190

> <VdW6>
-5.902

> <VdW12>
6.092

> <Bond>
0.149

> <Angle>
0.477

> <Pdih>
1.390

> <Idih>
0.000

> <Tether>
0.000

$$$$
VeraChem MOL file


 26 25  0  0  0  0  0  0  0  0999 V2000     
   21.4951   19.7737   25.7912 N   0  3  0  0  0  0  0  0  0  0  0  0
   21.8948   18.9868   26.3257 H   0  0  0  0  0  0  0  0  0  0  0  0
   20.6842   20.0959   26.3422 H   0  0  0  0  0  0  0  0  0  0  0  0
   21.0439   19.3016   24.4237 C   0  0  0  0  0  0  0  0  0  0  0  0
   21.9273   18.9600   23.8785 H   0  0  0  0  0  0  0  0  0  0  0  0
   20.6244   20.1617   23.8966 H   0  0  0  0  0  0  0  0  0  0  0  0
   20.0020   18.1679   24.4843 C   0  0  0  0  0  0  0  0  0  0  0  0
   20.4194   17.3270   25.0540 H   0  0  0  0  0  0  0  0  0  0  0  0
   19.1150   18.5105   25.0336 H   0  0  0  0  0  0  0  0  0  0  0  0
   19.5833   17.6657   23.0822 C   0  0  0  0  0  0  0  0  0  0  0  0
   18.9134   16.8030   23.2028 H   0  0  0  0  0  0  0  0  0  0  0  0
   20.4688   17.2981   22.5452 H   0  0  0  0  0  0  0  0  0  0  0  0
   18.8712   18.7485   22.2359 C   0  0  0  0  0  0  0  0  0  0  0  0
   18.0057   19.1375   22.7899 H   0  0  0  0  0  0  0  0  0  0  0  0
   19.5473   19.5970   22.0654 H   0  0  0  0  0  0  0  0  0  0  0  0
   18.4013   18.1943   20.8723 C   0  0  0  0  0  0  0  0  0  0  0  0
   17.7165   17.3493   21.0307 H   0  0  0  0  0  0  0  0  0  0  0  0
   19.2633   17.8029   20.3139 H   0  0  0  0  0  0  0  0  0  0  0  0
   17.6928   19.2754   20.0284 C   0  0  0  0  0  0  0  0  0  0  0  0
   16.8058   19.6626   20.5467 H   0  0  0  0  0  0  0  0  0  0  0  0
   17.3663   18.8629   19.0649 H   0  0  0  0  0  0  0  0  0  0  0  0
   18.3643   20.1193   19.8231 H   0  0  0  0  0  0  0  0  0  0  0  0
   22.5175   20.8919   25.6417 C   0  0  0  0  0  0  0  0  0  0  0  0
   22.8342   21.2225   26.6334 H   0  0  0  0  0  0  0  0  0  0  0  0
   23.3795   20.5182   25.0848 H   0  0  0  0  0  0  0  0  0  0  0  0
   22.0618   21.7256   25.1030 H   0  0  0  0  0  0  0  0  0  0  0  0
  1  2  1  0  0  0  0
  1  3  1  0  0  0  0
  1  4  1  0  0  0  0
  4  5  1  0  0  0  0
  4  6  1  0  0  0  0
  4  7  1  0  0  0  0
  7  8  1  0  0  0  0
  7  9  1  0  0  0  0
  7 10  1  0  0  0  0
 10 11  1  0  0  0  0
 10 12  1  0  0  0  0
 10 13  1  0  0  0  0
 13 14  1  0  0  0  0
 13 15  1  0  0  0  0
 13 16  1  0  0  0  0
 16 17  1  0  0  0  0
 16 18  1  0  0  0  0
 16 19  1  0  0  0  0
 19 20  1  0  0  0  0
 19 21  1  0  0  0  0
 19 22  1  0  0  0  0
  1 23  1  0  0  0  0
 23 24  1  0  0  0  0
 23 25  1  0  0  0  0
 23 26  1  0  0  0  0
M  END
> <VConfSearch Rank>
908

> <Conf_Id>
45

> <Delta U+W>
0.471

> <U+W>
22.313

> <U>
71.138

> <W>
-48.825

> <W(PB)>
-51.169

> <W(SA)>
2.344

> <Valence>
2.016

> <Coulomb>
68.932

> <VdW>
0.190

> <VdW6>
-5.902

> <VdW12>
6.092

> <Bond>
0.149

> <Angle>
0.477

> <Pdih>
1.390

> <Idih>
0.000

> <Tether>
0.000

$$$$
VeraChem MOL file


 26 25  0  0  0  0  0  0  0  0999 V2000     
   22.1575   18.9772   21.7318 N   0  3  0  0  0  0  0  0  0  0  0  0
   22.4553   19.3697   22.6376 H   0  0  0  0  0  0  0  0  0  0  0  0
   21.7312   19.7629   21.2165 H   0  0  0  0  0  0  0  0  0  0  0  0
   21.1335   17.8803   21.9513 C   0  0  0  0  0  0  0  0  0  0  0  0
   21.6179   17.0729   22.5061 H   0  0  0  0  0  0  0  0  0  0  0  0
   20.8467   17.4954   20.9694 H   0  0  0  0  0  0  0  0  0  0  0  0
   19.8728   18.3450   22.7066 C   0  0  0  0  0  0  0  0  0  0  0  0
   19.3935   19.1538   22.1408 H   0  0  0  0  0  0  0  0  0  0  0  0
   19.1576   17.5123   22.7330 H   0  0  0  0  0  0  0  0  0  0  0  0
   20.1814   18.8032   24.1541 C   0  0  0  0  0  0  0  0  0  0  0  0
   20.8250   19.6929   24.1398 H   0  0  0  0  0  0  0  0  0  0  0  0
   20.7538   18.0151   24.6632 H   0  0  0  0  0  0  0  0  0  0  0  0
   18.9126   19.1049   24.9892 C   0  0  0  0  0  0  0  0  0  0  0  0
   18.2754   18.2106   25.0279 H   0  0  0  0  0  0  0  0  0  0  0  0
   19.2178   19.3099   26.0248 H   0  0  0  0  0  0  0  0  0  0  0  0
   18.0942   20.3062   24.4592 C   0  0  0  0  0  0  0  0  0  0  0  0
   17.7140   20.0914   23.4516 H   0  0  0  0  0  0  0  0  0  0  0  0
   18.7432   21.1889   24.3735 H   0  0  0  0  0  0  0  0  0  0  0  0
   16.9028   20.6358   25.3838 C   0  0  0  0  0  0  0  0  0  0  0  0
   16.2186   19.7811   25.4658 H   0  0  0  0  0  0  0  0  0  0  0  0
   16.3319   21.4876   24.9919 H   0  0  0  0  0  0  0  0  0  0  0  0
   17.2461   20.8969   26.3933 H   0  0  0  0  0  0  0  0  0  0  0  0
   23.3542   18.4245   20.9703 C   0  0  0  0  0  0  0  0  0  0  0  0
   23.0194   18.0437   20.0029 H   0  0  0  0  0  0  0  0  0  0  0  0
   24.0833   19.2238   20.8197 H   0  0  0  0  0  0  0  0  0  0  0  0
   23.8066   17.6167   21.5496 H   0  0  0  0  0  0  0  0  0  0  0  0
  1  2  1  0  0  0  0
  1  3  1  0  0  0  0
  1  4  1  0  0  0  0
  4  5  1  0  0  0  0
  4  6  1  0  0  0  0
  4  7  1  0  0  0  0
  7  8  1  0  0  0  0
  7  9  1  0  0  0  0
  7 10  1  0  0  0  0
 10 11  1  0  0  0  0
 10 12  1  0  0  0  0
 10 13  1  0  0  0  0
 13 14  1  0  0  0  0
 13 15  1  0  0  0  0
 13 16  1  0  0  0  0
 16 17  1  0  0  0  0
 16 18  1  0  0  0  0
 16 19  1  0  0  0  0
 19 20  1  0  0  0  0
 19 21  1  0  0  0  0
 19 22  1  0  0  0  0
  1 23  1  0  0  0  0
 23 24  1  0  0  0  0
 23 25  1  0  0  0  0
 23 26  1  0  0  0  0
M  END
> <VConfSearch Rank>
909

> <Conf_Id>
143

> <Delta U+W>
0.915

> <U+W>
22.757

> <U>
71.994

> <W>
-49.237

> <W(PB)>
-51.537

> <W(SA)>
2.300

> <Valence>
2.376

> <Coulomb>
69.315

> <VdW>
0.303

> <VdW6>
-6.508

> <VdW12>
6.810

> <Bond>
0.182

> <Angle>
0.660

> <Pdih>
1.534

> <Idih>
0.000

> <Tether>
0.000

$$$$
VeraChem MOL file


 26 25  0  0  0  0  0  0  0  0999 V2000     
   18.1226   17.7174   22.1088 N   0  3  0  0  0  0  0  0  0  0  0  0
   17.5668   18.4687   22.5444 H   0  0  0  0  0  0  0  0  0  0  0  0
   18.1478   16.9543   22.8028 H   0  0  0  0  0  0  0  0  0  0  0  0
   19.5287   18.2080   21.8215 C   0  0  0  0  0  0  0  0  0  0  0  0
   19.4616   19.0196   21.0927 H   0  0  0  0  0  0  0  0  0  0  0  0
   20.0767   17.3815   21.3619 H   0  0  0  0  0  0  0  0  0  0  0  0
   20.2919   18.6932   23.0700 C   0  0  0  0  0  0  0  0  0  0  0  0
   20.3320   17.8859   23.8131 H   0  0  0  0  0  0  0  0  0  0  0  0
   21.3256   18.9033   22.7693 H   0  0  0  0  0  0  0  0  0  0  0  0
   19.6693   19.9654   23.6953 C   0  0  0  0  0  0  0  0  0  0  0  0
   18.6050   19.7898   23.8996 H   0  0  0  0  0  0  0  0  0  0  0  0
   19.7085   20.7859   22.9654 H   0  0  0  0  0  0  0  0  0  0  0  0
   20.3388   20.4212   25.0179 C   0  0  0  0  0  0  0  0  0  0  0  0
   19.7860   21.2982   25.3823 H   0  0  0  0  0  0  0  0  0  0  0  0
   20.2115   19.6508   25.7909 H   0  0  0  0  0  0  0  0  0  0  0  0
   21.8340   20.8127   24.8921 C   0  0  0  0  0  0  0  0  0  0  0  0
   22.0338   21.6538   25.5708 H   0  0  0  0  0  0  0  0  0  0  0  0
   22.0483   21.1848   23.8805 H   0  0  0  0  0  0  0  0  0  0  0  0
   22.8028   19.6643   25.2599 C   0  0  0  0  0  0  0  0  0  0  0  0
   22.6768   18.7924   24.6087 H   0  0  0  0  0  0  0  0  0  0  0  0
   22.6463   19.3368   26.2959 H   0  0  0  0  0  0  0  0  0  0  0  0
   23.8448   19.9977   25.1709 H   0  0  0  0  0  0  0  0  0  0  0  0
   17.4645   17.2462   20.8195 C   0  0  0  0  0  0  0  0  0  0  0  0
   18.0525   16.4302   20.3936 H   0  0  0  0  0  0  0  0  0  0  0  0
   16.4536   16.8963   21.0403 H   0  0  0  0  0  0  0  0  0  0  0  0
   17.4208   18.0786   20.1136 H   0  0  0  0  0  0  0  0  0  0  0  0
  1  2  1  0  0  0  0
  1  3  1  0  0  0  0
  1  4  1  0  0  0  0
  4  5  1  0  0  0  0
  4  6  1  0  0  0  0
  4  7  1  0  0  0  0
  7  8  1  0  0  0  0
  7  9  1  0  0  0  0
  7 10  1  0  0  0  0
 10 11  1  0  0  0  0
 10 12  1  0  0  0  0
 10 13  1  0  0  0  0
 13 14  1  0  0  0  0
 13 15  1  0  0  0  0
 13 16  1  0  0  0  0
 16 17  1  0  0  0  0
 16 18  1  0  0  0  0
 16 19  1  0  0  0  0
 19 20  1  0  0  0  0
 19 21  1  0  0  0  0
 19 22  1  0  0  0  0
  1 23  1  0  0  0  0
 23 24  1  0  0  0  0
 23 25  1  0  0  0  0
 23 26  1  0  0  0  0
M  END
> <VConfSearch Rank>
910

> <Conf_Id>
76

> <Delta U+W>
3.468

> <U+W>
25.310

> <U>
74.594

> <W>
-49.283

> <W(PB)>
-51.537

> <W(SA)>
2.253

> <Valence>
4.886

> <Coulomb>
69.332

> <VdW>
0.376

> <VdW6>
-7.329

> <VdW12>
7.705

> <Bond>
0.232

> <Angle>
1.251

> <Pdih>
3.403

> <Idih>
0.000

> <Tether>
0.000

$$$$
VeraChem MOL file


 26 25  0  0  0  0  0  0  0  0999 V2000     
   22.3384   18.4640   21.7997 N   0  3  0  0  0  0  0  0  0  0  0  0
   22.1225   17.4848   22.0431 H   0  0  0  0  0  0  0  0  0  0  0  0
   23.1105   18.7391   22.4267 H   0  0  0  0  0  0  0  0  0  0  0  0
   21.1282   19.3430   22.0437 C   0  0  0  0  0  0  0  0  0  0  0  0
   20.3342   19.0154   21.3679 H   0  0  0  0  0  0  0  0  0  0  0  0
   21.4008   20.3688   21.7829 H   0  0  0  0  0  0  0  0  0  0  0  0
   20.6234   19.2949   23.4972 C   0  0  0  0  0  0  0  0  0  0  0  0
   20.3766   18.2598   23.7585 H   0  0  0  0  0  0  0  0  0  0  0  0
   21.4309   19.6089   24.1719 H   0  0  0  0  0  0  0  0  0  0  0  0
   19.3955   20.2156   23.6974 C   0  0  0  0  0  0  0  0  0  0  0  0
   18.5988   19.9516   22.9881 H   0  0  0  0  0  0  0  0  0  0  0  0
   19.6954   21.2429   23.4474 H   0  0  0  0  0  0  0  0  0  0  0  0
   18.8431   20.2047   25.1469 C   0  0  0  0  0  0  0  0  0  0  0  0
   19.6532   20.0089   25.8629 H   0  0  0  0  0  0  0  0  0  0  0  0
   18.4795   21.2148   25.3818 H   0  0  0  0  0  0  0  0  0  0  0  0
   17.6697   19.2204   25.3875 C   0  0  0  0  0  0  0  0  0  0  0  0
   16.8236   19.4903   24.7401 H   0  0  0  0  0  0  0  0  0  0  0  0
   17.3145   19.3481   26.4197 H   0  0  0  0  0  0  0  0  0  0  0  0
   18.0284   17.7343   25.1684 C   0  0  0  0  0  0  0  0  0  0  0  0
   18.9134   17.4495   25.7520 H   0  0  0  0  0  0  0  0  0  0  0  0
   18.2233   17.5231   24.1099 H   0  0  0  0  0  0  0  0  0  0  0  0
   17.1977   17.0893   25.4826 H   0  0  0  0  0  0  0  0  0  0  0  0
   22.7700   18.5694   20.3435 C   0  0  0  0  0  0  0  0  0  0  0  0
   21.9495   18.2422   19.7012 H   0  0  0  0  0  0  0  0  0  0  0  0
   23.0249   19.6074   20.1187 H   0  0  0  0  0  0  0  0  0  0  0  0
   23.6421   17.9320   20.1814 H   0  0  0  0  0  0  0  0  0  0  0  0
  1  2  1  0  0  0  0
  1  3  1  0  0  0  0
  1  4  1  0  0  0  0
  4  5  1  0  0  0  0
  4  6  1  0  0  0  0
  4  7  1  0  0  0  0
  7  8  1  0  0  0  0
  7  9  1  0  0  0  0
  7 10  1  0  0  0  0
 10 11  1  0  0  0  0
 10 12  1  0  0  0  0
 10 13  1  0  0  0  0
 13 14  1  0  0  0  0
 13 15  1  0  0  0  0
 13 16  1  0  0  0  0
 16 17  1  0  0  0  0
 16 18  1  0  0  0  0
 16 19  1  0  0  0  0
 19 20  1  0  0  0  0
 19 21  1  0  0  0  0
 19 22  1  0  0  0  0
  1 23  1  0  0  0  0
 23 24  1  0  0  0  0
 23 25  1  0  0  0  0
 23 26  1  0  0  0  0
M  END
> <VConfSearch Rank>
911

> <Conf_Id>
123

> <Delta U+W>
3.101

> <U+W>
24.943

> <U>
74.070

> <W>
-49.127

> <W(PB)>
-51.421

> <W(SA)>
2.295

> <Valence>
4.690

> <Coulomb>
69.115

> <VdW>
0.266

> <VdW6>
-6.809

> <VdW12>
7.075

> <Bond>
0.212

> <Angle>
1.133

> <Pdih>
3.345

> <Idih>
0.000

> <Tether>
0.000

$$$$
VeraChem MOL file


 26 25  0  0  0  0  0  0  0  0999 V2000     
   20.4497   21.7074   23.2934 N   0  3  0  0  0  0  0  0  0  0  0  0
   20.6007   21.9324   24.2890 H   0  0  0  0  0  0  0  0  0  0  0  0
   19.4307   21.5907   23.1878 H   0  0  0  0  0  0  0  0  0  0  0  0
   21.1615   20.4167   22.9364 C   0  0  0  0  0  0  0  0  0  0  0  0
   22.2339   20.5867   23.0615 H   0  0  0  0  0  0  0  0  0  0  0  0
   20.9703   20.2069   21.8810 H   0  0  0  0  0  0  0  0  0  0  0  0
   20.7332   19.2076   23.7910 C   0  0  0  0  0  0  0  0  0  0  0  0
   21.3784   18.3605   23.5328 H   0  0  0  0  0  0  0  0  0  0  0  0
   20.9215   19.4252   24.8507 H   0  0  0  0  0  0  0  0  0  0  0  0
   19.2437   18.8296   23.5872 C   0  0  0  0  0  0  0  0  0  0  0  0
   19.0236   18.7044   22.5179 H   0  0  0  0  0  0  0  0  0  0  0  0
   18.6207   19.6663   23.9302 H   0  0  0  0  0  0  0  0  0  0  0  0
   18.8188   17.5591   24.3691 C   0  0  0  0  0  0  0  0  0  0  0  0
   19.4221   17.4523   25.2811 H   0  0  0  0  0  0  0  0  0  0  0  0
   17.7848   17.6991   24.7140 H   0  0  0  0  0  0  0  0  0  0  0  0
   18.8607   16.2465   23.5453 C   0  0  0  0  0  0  0  0  0  0  0  0
   18.1742   16.3259   22.6907 H   0  0  0  0  0  0  0  0  0  0  0  0
   18.4733   15.4300   24.1707 H   0  0  0  0  0  0  0  0  0  0  0  0
   20.2665   15.8568   23.0381 C   0  0  0  0  0  0  0  0  0  0  0  0
   20.9907   15.8254   23.8623 H   0  0  0  0  0  0  0  0  0  0  0  0
   20.6276   16.5637   22.2810 H   0  0  0  0  0  0  0  0  0  0  0  0
   20.2443   14.8627   22.5732 H   0  0  0  0  0  0  0  0  0  0  0  0
   20.9519   22.8386   22.4071 C   0  0  0  0  0  0  0  0  0  0  0  0
   20.7524   22.5917   21.3620 H   0  0  0  0  0  0  0  0  0  0  0  0
   20.4313   23.7611   22.6741 H   0  0  0  0  0  0  0  0  0  0  0  0
   22.0261   22.9641   22.5592 H   0  0  0  0  0  0  0  0  0  0  0  0
  1  2  1  0  0  0  0
  1  3  1  0  0  0  0
  1  4  1  0  0  0  0
  4  5  1  0  0  0  0
  4  6  1  0  0  0  0
  4  7  1  0  0  0  0
  7  8  1  0  0  0  0
  7  9  1  0  0  0  0
  7 10  1  0  0  0  0
 10 11  1  0  0  0  0
 10 12  1  0  0  0  0
 10 13  1  0  0  0  0
 13 14  1  0  0  0  0
 13 15  1  0  0  0  0
 13 16  1  0  0  0  0
 16 17  1  0  0  0  0
 16 18  1  0  0  0  0
 16 19  1  0  0  0  0
 19 20  1  0  0  0  0
 19 21  1  0  0  0  0
 19 22  1  0  0  0  0
  1 23  1  0  0  0  0
 23 24  1  0  0  0  0
 23 25  1  0  0  0  0
 23 26  1  0  0  0  0
M  END
> <VConfSearch Rank>
912

> <Conf_Id>
111

> <Delta U+W>
3.383

> <U+W>
25.225

> <U>
74.516

> <W>
-49.292

> <W(PB)>
-51.558

> <W(SA)>
2.266

> <Valence>
4.842

> <Coulomb>
69.333

> <VdW>
0.342

> <VdW6>
-7.369

> <VdW12>
7.711

> <Bond>
0.232

> <Angle>
1.153

> <Pdih>
3.457

> <Idih>
0.000

> <Tether>
0.000

$$$$
VeraChem MOL file


 26 25  0  0  0  0  0  0  0  0999 V2000     
   18.0440   19.1429   24.6202 N   0  3  0  0  0  0  0  0  0  0  0  0
   17.3610   19.8778   24.3798 H   0  0  0  0  0  0  0  0  0  0  0  0
   18.9115   19.6415   24.8691 H   0  0  0  0  0  0  0  0  0  0  0  0
   18.2881   18.2459   23.4225 C   0  0  0  0  0  0  0  0  0  0  0  0
   17.3453   17.7467   23.1851 H   0  0  0  0  0  0  0  0  0  0  0  0
   19.0113   17.4815   23.7161 H   0  0  0  0  0  0  0  0  0  0  0  0
   18.7984   18.9959   22.1745 C   0  0  0  0  0  0  0  0  0  0  0  0
   18.9005   18.2778   21.3501 H   0  0  0  0  0  0  0  0  0  0  0  0
   18.0371   19.7202   21.8556 H   0  0  0  0  0  0  0  0  0  0  0  0
   20.1476   19.7299   22.3820 C   0  0  0  0  0  0  0  0  0  0  0  0
   20.0353   20.5119   23.1446 H   0  0  0  0  0  0  0  0  0  0  0  0
   20.3987   20.2491   21.4479 H   0  0  0  0  0  0  0  0  0  0  0  0
   21.3067   18.7781   22.7736 C   0  0  0  0  0  0  0  0  0  0  0  0
   21.0468   18.2406   23.6951 H   0  0  0  0  0  0  0  0  0  0  0  0
   21.4362   18.0129   21.9959 H   0  0  0  0  0  0  0  0  0  0  0  0
   22.6515   19.5085   23.0076 C   0  0  0  0  0  0  0  0  0  0  0  0
   23.3832   18.7836   23.3911 H   0  0  0  0  0  0  0  0  0  0  0  0
   22.5313   20.2674   23.7933 H   0  0  0  0  0  0  0  0  0  0  0  0
   23.2268   20.1663   21.7325 C   0  0  0  0  0  0  0  0  0  0  0  0
   22.5917   20.9882   21.3798 H   0  0  0  0  0  0  0  0  0  0  0  0
   23.3258   19.4344   20.9204 H   0  0  0  0  0  0  0  0  0  0  0  0
   24.2228   20.5827   21.9314 H   0  0  0  0  0  0  0  0  0  0  0  0
   17.5476   18.3141   25.7966 C   0  0  0  0  0  0  0  0  0  0  0  0
   17.3771   18.9719   26.6517 H   0  0  0  0  0  0  0  0  0  0  0  0
   16.6137   17.8204   25.5190 H   0  0  0  0  0  0  0  0  0  0  0  0
   18.3006   17.5651   26.0515 H   0  0  0  0  0  0  0  0  0  0  0  0
  1  2  1  0  0  0  0
  1  3  1  0  0  0  0
  1  4  1  0  0  0  0
  4  5  1  0  0  0  0
  4  6  1  0  0  0  0
  4  7  1  0  0  0  0
  7  8  1  0  0  0  0
  7  9  1  0  0  0  0
  7 10  1  0  0  0  0
 10 11  1  0  0  0  0
 10 12  1  0  0  0  0
 10 13  1  0  0  0  0
 13 14  1  0  0  0  0
 13 15  1  0  0  0  0
 13 16  1  0  0  0  0
 16 17  1  0  0  0  0
 16 18  1  0  0  0  0
 16 19  1  0  0  0  0
 19 20  1  0  0  0  0
 19 21  1  0  0  0  0
 19 22  1  0  0  0  0
  1 23  1  0  0  0  0
 23 24  1  0  0  0  0
 23 25  1  0  0  0  0
 23 26  1  0  0  0  0
M  END
> <VConfSearch Rank>
913

> <Conf_Id>
126

> <Delta U+W>
1.519

> <U+W>
23.361

> <U>
72.579

> <W>
-49.218

> <W(PB)>
-51.496

> <W(SA)>
2.279

> <Valence>
2.678

> <Coulomb>
69.622

> <VdW>
0.279

> <VdW6>
-7.328

> <VdW12>
7.608

> <Bond>
0.212

> <Angle>
0.911

> <Pdih>
1.555

> <Idih>
0.000

> <Tether>
0.000

$$$$
VeraChem MOL file


 26 25  0  0  0  0  0  0  0  0999 V2000     
   18.6634   19.5452   25.1813 N   0  3  0  0  0  0  0  0  0  0  0  0
   18.7926   20.2103   24.4041 H   0  0  0  0  0  0  0  0  0  0  0  0
   19.1417   19.9690   25.9914 H   0  0  0  0  0  0  0  0  0  0  0  0
   19.3029   18.2147   24.8356 C   0  0  0  0  0  0  0  0  0  0  0  0
   18.7691   17.7971   23.9788 H   0  0  0  0  0  0  0  0  0  0  0  0
   19.1542   17.5449   25.6864 H   0  0  0  0  0  0  0  0  0  0  0  0
   20.8094   18.3103   24.5166 C   0  0  0  0  0  0  0  0  0  0  0  0
   21.3412   18.6759   25.4051 H   0  0  0  0  0  0  0  0  0  0  0  0
   21.1932   17.2992   24.3259 H   0  0  0  0  0  0  0  0  0  0  0  0
   21.1464   19.2204   23.3083 C   0  0  0  0  0  0  0  0  0  0  0  0
   22.2377   19.2386   23.1910 H   0  0  0  0  0  0  0  0  0  0  0  0
   20.8456   20.2545   23.5228 H   0  0  0  0  0  0  0  0  0  0  0  0
   20.4908   18.7471   21.9857 C   0  0  0  0  0  0  0  0  0  0  0  0
   20.8151   17.7223   21.7579 H   0  0  0  0  0  0  0  0  0  0  0  0
   19.4007   18.7056   22.1090 H   0  0  0  0  0  0  0  0  0  0  0  0
   20.8023   19.6668   20.7800 C   0  0  0  0  0  0  0  0  0  0  0  0
   20.4690   20.6913   20.9972 H   0  0  0  0  0  0  0  0  0  0  0  0
   20.2108   19.3285   19.9177 H   0  0  0  0  0  0  0  0  0  0  0  0
   22.2961   19.6790   20.3824 C   0  0  0  0  0  0  0  0  0  0  0  0
   22.6626   18.6619   20.1919 H   0  0  0  0  0  0  0  0  0  0  0  0
   22.9193   20.1286   21.1652 H   0  0  0  0  0  0  0  0  0  0  0  0
   22.4448   20.2657   19.4667 H   0  0  0  0  0  0  0  0  0  0  0  0
   17.1830   19.3484   25.4760 C   0  0  0  0  0  0  0  0  0  0  0  0
   16.6939   18.9289   24.5941 H   0  0  0  0  0  0  0  0  0  0  0  0
   17.0729   18.6646   26.3206 H   0  0  0  0  0  0  0  0  0  0  0  0
   16.7352   20.3137   25.7222 H   0  0  0  0  0  0  0  0  0  0  0  0
  1  2  1  0  0  0  0
  1  3  1  0  0  0  0
  1  4  1  0  0  0  0
  4  5  1  0  0  0  0
  4  6  1  0  0  0  0
  4  7  1  0  0  0  0
  7  8  1  0  0  0  0
  7  9  1  0  0  0  0
  7 10  1  0  0  0  0
 10 11  1  0  0  0  0
 10 12  1  0  0  0  0
 10 13  1  0  0  0  0
 13 14  1  0  0  0  0
 13 15  1  0  0  0  0
 13 16  1  0  0  0  0
 16 17  1  0  0  0  0
 16 18  1  0  0  0  0
 16 19  1  0  0  0  0
 19 20  1  0  0  0  0
 19 21  1  0  0  0  0
 19 22  1  0  0  0  0
  1 23  1  0  0  0  0
 23 24  1  0  0  0  0
 23 25  1  0  0  0  0
 23 26  1  0  0  0  0
M  END
> <VConfSearch Rank>
914

> <Conf_Id>
134

> <Delta U+W>
1.464

> <U+W>
23.306

> <U>
72.579

> <W>
-49.273

> <W(PB)>
-51.540

> <W(SA)>
2.267

> <Valence>
2.677

> <Coulomb>
69.622

> <VdW>
0.280

> <VdW6>
-7.328

> <VdW12>
7.608

> <Bond>
0.212

> <Angle>
0.911

> <Pdih>
1.555

> <Idih>
0.000

> <Tether>
0.000

$$$$
VeraChem MOL file


 26 25  0  0  0  0  0  0  0  0999 V2000     
   18.6647   17.6920   21.3809 N   0  3  0  0  0  0  0  0  0  0  0  0
   19.5778   17.5388   20.9253 H   0  0  0  0  0  0  0  0  0  0  0  0
   18.2278   18.4717   20.8651 H   0  0  0  0  0  0  0  0  0  0  0  0
   18.8626   18.0726   22.8344 C   0  0  0  0  0  0  0  0  0  0  0  0
   19.3330   17.2265   23.3416 H   0  0  0  0  0  0  0  0  0  0  0  0
   17.8759   18.2336   23.2760 H   0  0  0  0  0  0  0  0  0  0  0  0
   19.7257   19.3335   23.0216 C   0  0  0  0  0  0  0  0  0  0  0  0
   20.7066   19.1670   22.5587 H   0  0  0  0  0  0  0  0  0  0  0  0
   19.2580   20.1775   22.4976 H   0  0  0  0  0  0  0  0  0  0  0  0
   19.8975   19.6810   24.5190 C   0  0  0  0  0  0  0  0  0  0  0  0
   20.4006   18.8536   25.0371 H   0  0  0  0  0  0  0  0  0  0  0  0
   18.9043   19.7662   24.9815 H   0  0  0  0  0  0  0  0  0  0  0  0
   20.6658   21.0055   24.7651 C   0  0  0  0  0  0  0  0  0  0  0  0
   20.0898   21.8375   24.3370 H   0  0  0  0  0  0  0  0  0  0  0  0
   20.7055   21.1938   25.8469 H   0  0  0  0  0  0  0  0  0  0  0  0
   22.1071   21.0514   24.1959 C   0  0  0  0  0  0  0  0  0  0  0  0
   22.5444   22.0318   24.4310 H   0  0  0  0  0  0  0  0  0  0  0  0
   22.0850   20.9888   23.0997 H   0  0  0  0  0  0  0  0  0  0  0  0
   23.0281   19.9474   24.7633 C   0  0  0  0  0  0  0  0  0  0  0  0
   23.0513   19.9780   25.8603 H   0  0  0  0  0  0  0  0  0  0  0  0
   24.0559   20.0807   24.4019 H   0  0  0  0  0  0  0  0  0  0  0  0
   22.6967   18.9484   24.4539 H   0  0  0  0  0  0  0  0  0  0  0  0
   17.8038   16.4400   21.2858 C   0  0  0  0  0  0  0  0  0  0  0  0
   16.8321   16.6366   21.7444 H   0  0  0  0  0  0  0  0  0  0  0  0
   17.6689   16.1769   20.2343 H   0  0  0  0  0  0  0  0  0  0  0  0
   18.3015   15.6212   21.8100 H   0  0  0  0  0  0  0  0  0  0  0  0
  1  2  1  0  0  0  0
  1  3  1  0  0  0  0
  1  4  1  0  0  0  0
  4  5  1  0  0  0  0
  4  6  1  0  0  0  0
  4  7  1  0  0  0  0
  7  8  1  0  0  0  0
  7  9  1  0  0  0  0
  7 10  1  0  0  0  0
 10 11  1  0  0  0  0
 10 12  1  0  0  0  0
 10 13  1  0  0  0  0
 13 14  1  0  0  0  0
 13 15  1  0  0  0  0
 13 16  1  0  0  0  0
 16 17  1  0  0  0  0
 16 18  1  0  0  0  0
 16 19  1  0  0  0  0
 19 20  1  0  0  0  0
 19 21  1  0  0  0  0
 19 22  1  0  0  0  0
  1 23  1  0  0  0  0
 23 24  1  0  0  0  0
 23 25  1  0  0  0  0
 23 26  1  0  0  0  0
M  END
> <VConfSearch Rank>
915

> <Conf_Id>
30

> <Delta U+W>
0.910

> <U+W>
22.752

> <U>
71.870

> <W>
-49.118

> <W(PB)>
-51.409

> <W(SA)>
2.290

> <Valence>
2.682

> <Coulomb>
68.933

> <VdW>
0.255

> <VdW6>
-6.833

> <VdW12>
7.088

> <Bond>
0.205

> <Angle>
1.003

> <Pdih>
1.473

> <Idih>
0.000

> <Tether>
0.000

$$$$
VeraChem MOL file


 26 25  0  0  0  0  0  0  0  0999 V2000     
   22.1447   17.6985   24.4478 N   0  3  0  0  0  0  0  0  0  0  0  0
   22.5058   18.4061   25.1065 H   0  0  0  0  0  0  0  0  0  0  0  0
   22.6239   17.8860   23.5534 H   0  0  0  0  0  0  0  0  0  0  0  0
   20.6465   17.8554   24.2816 C   0  0  0  0  0  0  0  0  0  0  0  0
   20.1793   17.6574   25.2495 H   0  0  0  0  0  0  0  0  0  0  0  0
   20.3064   17.0958   23.5732 H   0  0  0  0  0  0  0  0  0  0  0  0
   20.2321   19.2514   23.7823 C   0  0  0  0  0  0  0  0  0  0  0  0
   20.5893   20.0128   24.4883 H   0  0  0  0  0  0  0  0  0  0  0  0
   20.7213   19.4463   22.8195 H   0  0  0  0  0  0  0  0  0  0  0  0
   18.6969   19.3621   23.6298 C   0  0  0  0  0  0  0  0  0  0  0  0
   18.2232   19.0872   24.5825 H   0  0  0  0  0  0  0  0  0  0  0  0
   18.3426   18.6273   22.8945 H   0  0  0  0  0  0  0  0  0  0  0  0
   18.2126   20.7817   23.2357 C   0  0  0  0  0  0  0  0  0  0  0  0
   17.1148   20.7791   23.1897 H   0  0  0  0  0  0  0  0  0  0  0  0
   18.4773   21.4849   24.0373 H   0  0  0  0  0  0  0  0  0  0  0  0
   18.7684   21.3228   21.8934 C   0  0  0  0  0  0  0  0  0  0  0  0
   19.8572   21.4516   21.9572 H   0  0  0  0  0  0  0  0  0  0  0  0
   18.3574   22.3281   21.7251 H   0  0  0  0  0  0  0  0  0  0  0  0
   18.4184   20.4330   20.6791 C   0  0  0  0  0  0  0  0  0  0  0  0
   18.9063   19.4525   20.7446 H   0  0  0  0  0  0  0  0  0  0  0  0
   18.7524   20.9061   19.7466 H   0  0  0  0  0  0  0  0  0  0  0  0
   17.3347   20.2742   20.6055 H   0  0  0  0  0  0  0  0  0  0  0  0
   22.4669   16.2951   24.9423 C   0  0  0  0  0  0  0  0  0  0  0  0
   23.5485   16.1956   25.0579 H   0  0  0  0  0  0  0  0  0  0  0  0
   21.9765   16.1320   25.9045 H   0  0  0  0  0  0  0  0  0  0  0  0
   22.1050   15.5659   24.2141 H   0  0  0  0  0  0  0  0  0  0  0  0
  1  2  1  0  0  0  0
  1  3  1  0  0  0  0
  1  4  1  0  0  0  0
  4  5  1  0  0  0  0
  4  6  1  0  0  0  0
  4  7  1  0  0  0  0
  7  8  1  0  0  0  0
  7  9  1  0  0  0  0
  7 10  1  0  0  0  0
 10 11  1  0  0  0  0
 10 12  1  0  0  0  0
 10 13  1  0  0  0  0
 13 14  1  0  0  0  0
 13 15  1  0  0  0  0
 13 16  1  0  0  0  0
 16 17  1  0  0  0  0
 16 18  1  0  0  0  0
 16 19  1  0  0  0  0
 19 20  1  0  0  0  0
 19 21  1  0  0  0  0
 19 22  1  0  0  0  0
  1 23  1  0  0  0  0
 23 24  1  0  0  0  0
 23 25  1  0  0  0  0
 23 26  1  0  0  0  0
M  END
> <VConfSearch Rank>
916

> <Conf_Id>
29

> <Delta U+W>
0.886

> <U+W>
22.729

> <U>
71.870

> <W>
-49.141

> <W(PB)>
-51.404

> <W(SA)>
2.262

> <Valence>
2.682

> <Coulomb>
68.933

> <VdW>
0.255

> <VdW6>
-6.833

> <VdW12>
7.088

> <Bond>
0.205

> <Angle>
1.003

> <Pdih>
1.473

> <Idih>
0.000

> <Tether>
0.000

$$$$
VeraChem MOL file


 26 25  0  0  0  0  0  0  0  0999 V2000     
   19.0938   17.6496   25.3235 N   0  3  0  0  0  0  0  0  0  0  0  0
   19.4557   17.9046   26.2556 H   0  0  0  0  0  0  0  0  0  0  0  0
   19.7236   16.9092   24.9774 H   0  0  0  0  0  0  0  0  0  0  0  0
   19.1387   18.8494   24.3991 C   0  0  0  0  0  0  0  0  0  0  0  0
   18.4707   19.6125   24.8064 H   0  0  0  0  0  0  0  0  0  0  0  0
   18.7516   18.5356   23.4267 H   0  0  0  0  0  0  0  0  0  0  0  0
   20.5532   19.4358   24.2301 C   0  0  0  0  0  0  0  0  0  0  0  0
   20.9470   19.7149   25.2164 H   0  0  0  0  0  0  0  0  0  0  0  0
   21.2283   18.6659   23.8353 H   0  0  0  0  0  0  0  0  0  0  0  0
   20.5768   20.6825   23.3111 C   0  0  0  0  0  0  0  0  0  0  0  0
   21.6054   21.0619   23.2471 H   0  0  0  0  0  0  0  0  0  0  0  0
   19.9950   21.4845   23.7862 H   0  0  0  0  0  0  0  0  0  0  0  0
   20.0199   20.4481   21.8807 C   0  0  0  0  0  0  0  0  0  0  0  0
   18.9446   20.2320   21.9386 H   0  0  0  0  0  0  0  0  0  0  0  0
   20.1014   21.3864   21.3149 H   0  0  0  0  0  0  0  0  0  0  0  0
   20.7158   19.3189   21.0788 C   0  0  0  0  0  0  0  0  0  0  0  0
   20.2322   19.2388   20.0952 H   0  0  0  0  0  0  0  0  0  0  0  0
   20.5571   18.3500   21.5709 H   0  0  0  0  0  0  0  0  0  0  0  0
   22.2287   19.5572   20.8710 C   0  0  0  0  0  0  0  0  0  0  0  0
   22.6563   18.7772   20.2279 H   0  0  0  0  0  0  0  0  0  0  0  0
   22.7741   19.5364   21.8227 H   0  0  0  0  0  0  0  0  0  0  0  0
   22.4129   20.5268   20.3904 H   0  0  0  0  0  0  0  0  0  0  0  0
   17.6665   17.1304   25.4287 C   0  0  0  0  0  0  0  0  0  0  0  0
   17.6479   16.2668   26.0973 H   0  0  0  0  0  0  0  0  0  0  0  0
   17.0257   17.9197   25.8277 H   0  0  0  0  0  0  0  0  0  0  0  0
   17.3173   16.8362   24.4365 H   0  0  0  0  0  0  0  0  0  0  0  0
  1  2  1  0  0  0  0
  1  3  1  0  0  0  0
  1  4  1  0  0  0  0
  4  5  1  0  0  0  0
  4  6  1  0  0  0  0
  4  7  1  0  0  0  0
  7  8  1  0  0  0  0
  7  9  1  0  0  0  0
  7 10  1  0  0  0  0
 10 11  1  0  0  0  0
 10 12  1  0  0  0  0
 10 13  1  0  0  0  0
 13 14  1  0  0  0  0
 13 15  1  0  0  0  0
 13 16  1  0  0  0  0
 16 17  1  0  0  0  0
 16 18  1  0  0  0  0
 16 19  1  0  0  0  0
 19 20  1  0  0  0  0
 19 21  1  0  0  0  0
 19 22  1  0  0  0  0
  1 23  1  0  0  0  0
 23 24  1  0  0  0  0
 23 25  1  0  0  0  0
 23 26  1  0  0  0  0
M  END
> <VConfSearch Rank>
917

> <Conf_Id>
82

> <Delta U+W>
1.026

> <U+W>
22.868

> <U>
72.455

> <W>
-49.586

> <W(PB)>
-51.821

> <W(SA)>
2.234

> <Valence>
2.908

> <Coulomb>
69.435

> <VdW>
0.112

> <VdW6>
-7.765

> <VdW12>
7.877

> <Bond>
0.233

> <Angle>
1.170

> <Pdih>
1.506

> <Idih>
0.000

> <Tether>
0.000

$$$$
VeraChem MOL file


 26 25  0  0  0  0  0  0  0  0999 V2000     
   17.7133   20.1910   23.1988 N   0  3  0  0  0  0  0  0  0  0  0  0
   17.3621   19.2661   23.4917 H   0  0  0  0  0  0  0  0  0  0  0  0
   17.3259   20.3457   22.2550 H   0  0  0  0  0  0  0  0  0  0  0  0
   19.2277   20.1837   23.1474 C   0  0  0  0  0  0  0  0  0  0  0  0
   19.5948   20.0143   24.1625 H   0  0  0  0  0  0  0  0  0  0  0  0
   19.5576   21.1735   22.8220 H   0  0  0  0  0  0  0  0  0  0  0  0
   19.8002   19.1102   22.2025 C   0  0  0  0  0  0  0  0  0  0  0  0
   19.4572   18.1171   22.5195 H   0  0  0  0  0  0  0  0  0  0  0  0
   19.3975   19.2678   21.1932 H   0  0  0  0  0  0  0  0  0  0  0  0
   21.3474   19.1389   22.1337 C   0  0  0  0  0  0  0  0  0  0  0  0
   21.6653   20.0958   21.6972 H   0  0  0  0  0  0  0  0  0  0  0  0
   21.6901   18.3661   21.4328 H   0  0  0  0  0  0  0  0  0  0  0  0
   22.0637   18.9558   23.4992 C   0  0  0  0  0  0  0  0  0  0  0  0
   23.1493   18.9739   23.3306 H   0  0  0  0  0  0  0  0  0  0  0  0
   21.8514   19.8210   24.1417 H   0  0  0  0  0  0  0  0  0  0  0  0
   21.6988   17.6597   24.2669 C   0  0  0  0  0  0  0  0  0  0  0  0
   20.6354   17.6670   24.5412 H   0  0  0  0  0  0  0  0  0  0  0  0
   22.2535   17.6467   25.2155 H   0  0  0  0  0  0  0  0  0  0  0  0
   22.0264   16.3693   23.4818 C   0  0  0  0  0  0  0  0  0  0  0  0
   21.4141   16.2829   22.5756 H   0  0  0  0  0  0  0  0  0  0  0  0
   21.8300   15.4831   24.0990 H   0  0  0  0  0  0  0  0  0  0  0  0
   23.0833   16.3450   23.1862 H   0  0  0  0  0  0  0  0  0  0  0  0
   17.2331   21.2723   24.1570 C   0  0  0  0  0  0  0  0  0  0  0  0
   17.5888   22.2444   23.8087 H   0  0  0  0  0  0  0  0  0  0  0  0
   16.1412   21.2672   24.1845 H   0  0  0  0  0  0  0  0  0  0  0  0
   17.6282   21.0692   25.1548 H   0  0  0  0  0  0  0  0  0  0  0  0
  1  2  1  0  0  0  0
  1  3  1  0  0  0  0
  1  4  1  0  0  0  0
  4  5  1  0  0  0  0
  4  6  1  0  0  0  0
  4  7  1  0  0  0  0
  7  8  1  0  0  0  0
  7  9  1  0  0  0  0
  7 10  1  0  0  0  0
 10 11  1  0  0  0  0
 10 12  1  0  0  0  0
 10 13  1  0  0  0  0
 13 14  1  0  0  0  0
 13 15  1  0  0  0  0
 13 16  1  0  0  0  0
 16 17  1  0  0  0  0
 16 18  1  0  0  0  0
 16 19  1  0  0  0  0
 19 20  1  0  0  0  0
 19 21  1  0  0  0  0
 19 22  1  0  0  0  0
  1 23  1  0  0  0  0
 23 24  1  0  0  0  0
 23 25  1  0  0  0  0
 23 26  1  0  0  0  0
M  END
> <VConfSearch Rank>
918

> <Conf_Id>
71

> <Delta U+W>
1.096

> <U+W>
22.938

> <U>
72.455

> <W>
-49.517

> <W(PB)>
-51.795

> <W(SA)>
2.278

> <Valence>
2.908

> <Coulomb>
69.435

> <VdW>
0.112

> <VdW6>
-7.766

> <VdW12>
7.877

> <Bond>
0.233

> <Angle>
1.170

> <Pdih>
1.506

> <Idih>
0.000

> <Tether>
0.000

$$$$
VeraChem MOL file


 26 25  0  0  0  0  0  0  0  0999 V2000     
   22.3123   18.3627   23.6886 N   0  3  0  0  0  0  0  0  0  0  0  0
   21.7282   18.0135   22.9142 H   0  0  0  0  0  0  0  0  0  0  0  0
   22.7652   17.5241   24.0851 H   0  0  0  0  0  0  0  0  0  0  0  0
   21.4365   19.0175   24.7450 C   0  0  0  0  0  0  0  0  0  0  0  0
   22.0928   19.3896   25.5359 H   0  0  0  0  0  0  0  0  0  0  0  0
   20.8049   18.2367   25.1753 H   0  0  0  0  0  0  0  0  0  0  0  0
   20.5400   20.1681   24.2334 C   0  0  0  0  0  0  0  0  0  0  0  0
   19.9523   20.5554   25.0761 H   0  0  0  0  0  0  0  0  0  0  0  0
   21.1727   21.0007   23.8998 H   0  0  0  0  0  0  0  0  0  0  0  0
   19.5810   19.7634   23.0854 C   0  0  0  0  0  0  0  0  0  0  0  0
   20.1617   19.4491   22.2079 H   0  0  0  0  0  0  0  0  0  0  0  0
   19.0231   20.6572   22.7777 H   0  0  0  0  0  0  0  0  0  0  0  0
   18.5864   18.6443   23.4866 C   0  0  0  0  0  0  0  0  0  0  0  0
   19.1427   17.7597   23.8233 H   0  0  0  0  0  0  0  0  0  0  0  0
   17.9841   18.9747   24.3442 H   0  0  0  0  0  0  0  0  0  0  0  0
   17.6483   18.2115   22.3337 C   0  0  0  0  0  0  0  0  0  0  0  0
   17.0602   17.3444   22.6655 H   0  0  0  0  0  0  0  0  0  0  0  0
   18.2451   17.8675   21.4774 H   0  0  0  0  0  0  0  0  0  0  0  0
   16.6772   19.3243   21.8773 C   0  0  0  0  0  0  0  0  0  0  0  0
   17.2123   20.1648   21.4187 H   0  0  0  0  0  0  0  0  0  0  0  0
   16.0914   19.7086   22.7224 H   0  0  0  0  0  0  0  0  0  0  0  0
   15.9727   18.9362   21.1303 H   0  0  0  0  0  0  0  0  0  0  0  0
   23.3713   19.3304   23.1734 C   0  0  0  0  0  0  0  0  0  0  0  0
   23.9983   18.8173   22.4409 H   0  0  0  0  0  0  0  0  0  0  0  0
   22.8809   20.1850   22.7029 H   0  0  0  0  0  0  0  0  0  0  0  0
   23.9848   19.6697   24.0109 H   0  0  0  0  0  0  0  0  0  0  0  0
  1  2  1  0  0  0  0
  1  3  1  0  0  0  0
  1  4  1  0  0  0  0
  4  5  1  0  0  0  0
  4  6  1  0  0  0  0
  4  7  1  0  0  0  0
  7  8  1  0  0  0  0
  7  9  1  0  0  0  0
  7 10  1  0  0  0  0
 10 11  1  0  0  0  0
 10 12  1  0  0  0  0
 10 13  1  0  0  0  0
 13 14  1  0  0  0  0
 13 15  1  0  0  0  0
 13 16  1  0  0  0  0
 16 17  1  0  0  0  0
 16 18  1  0  0  0  0
 16 19  1  0  0  0  0
 19 20  1  0  0  0  0
 19 21  1  0  0  0  0
 19 22  1  0  0  0  0
  1 23  1  0  0  0  0
 23 24  1  0  0  0  0
 23 25  1  0  0  0  0
 23 26  1  0  0  0  0
M  END
> <VConfSearch Rank>
919

> <Conf_Id>
84

> <Delta U+W>
1.456

> <U+W>
23.298

> <U>
73.042

> <W>
-49.744

> <W(PB)>
-51.966

> <W(SA)>
2.222

> <Valence>
2.938

> <Coulomb>
69.625

> <VdW>
0.478

> <VdW6>
-8.182

> <VdW12>
8.660

> <Bond>
0.253

> <Angle>
1.038

> <Pdih>
1.647

> <Idih>
0.000

> <Tether>
0.000

$$$$
VeraChem MOL file


 26 25  0  0  0  0  0  0  0  0999 V2000     
   18.4952   20.9777   23.1353 N   0  3  0  0  0  0  0  0  0  0  0  0
   19.4930   21.0023   22.8768 H   0  0  0  0  0  0  0  0  0  0  0  0
   18.3860   21.6770   23.8861 H   0  0  0  0  0  0  0  0  0  0  0  0
   18.1273   19.5995   23.6489 C   0  0  0  0  0  0  0  0  0  0  0  0
   18.2513   18.8899   22.8275 H   0  0  0  0  0  0  0  0  0  0  0  0
   17.0694   19.6197   23.9228 H   0  0  0  0  0  0  0  0  0  0  0  0
   18.9620   19.1426   24.8633 C   0  0  0  0  0  0  0  0  0  0  0  0
   18.7887   19.8333   25.6992 H   0  0  0  0  0  0  0  0  0  0  0  0
   18.5927   18.1631   25.1949 H   0  0  0  0  0  0  0  0  0  0  0  0
   20.4833   19.0468   24.5842 C   0  0  0  0  0  0  0  0  0  0  0  0
   20.9877   18.7278   25.5068 H   0  0  0  0  0  0  0  0  0  0  0  0
   20.8839   20.0415   24.3474 H   0  0  0  0  0  0  0  0  0  0  0  0
   20.8335   18.0571   23.4467 C   0  0  0  0  0  0  0  0  0  0  0  0
   20.4103   17.0694   23.6766 H   0  0  0  0  0  0  0  0  0  0  0  0
   20.3752   18.3879   22.5052 H   0  0  0  0  0  0  0  0  0  0  0  0
   22.3602   17.9282   23.2477 C   0  0  0  0  0  0  0  0  0  0  0  0
   22.8291   17.5872   24.1814 H   0  0  0  0  0  0  0  0  0  0  0  0
   22.7895   18.9139   23.0194 H   0  0  0  0  0  0  0  0  0  0  0  0
   22.7079   16.9430   22.1113 C   0  0  0  0  0  0  0  0  0  0  0  0
   22.3205   15.9387   22.3271 H   0  0  0  0  0  0  0  0  0  0  0  0
   23.7956   16.8644   21.9857 H   0  0  0  0  0  0  0  0  0  0  0  0
   22.2818   17.2757   21.1558 H   0  0  0  0  0  0  0  0  0  0  0  0
   17.6242   21.3353   21.9392 C   0  0  0  0  0  0  0  0  0  0  0  0
   16.5757   21.3320   22.2451 H   0  0  0  0  0  0  0  0  0  0  0  0
   17.9003   22.3289   21.5792 H   0  0  0  0  0  0  0  0  0  0  0  0
   17.7812   20.5992   21.1477 H   0  0  0  0  0  0  0  0  0  0  0  0
  1  2  1  0  0  0  0
  1  3  1  0  0  0  0
  1  4  1  0  0  0  0
  4  5  1  0  0  0  0
  4  6  1  0  0  0  0
  4  7  1  0  0  0  0
  7  8  1  0  0  0  0
  7  9  1  0  0  0  0
  7 10  1  0  0  0  0
 10 11  1  0  0  0  0
 10 12  1  0  0  0  0
 10 13  1  0  0  0  0
 13 14  1  0  0  0  0
 13 15  1  0  0  0  0
 13 16  1  0  0  0  0
 16 17  1  0  0  0  0
 16 18  1  0  0  0  0
 16 19  1  0  0  0  0
 19 20  1  0  0  0  0
 19 21  1  0  0  0  0
 19 22  1  0  0  0  0
  1 23  1  0  0  0  0
 23 24  1  0  0  0  0
 23 25  1  0  0  0  0
 23 26  1  0  0  0  0
M  END
> <VConfSearch Rank>
920

> <Conf_Id>
73

> <Delta U+W>
0.884

> <U+W>
22.726

> <U>
71.905

> <W>
-49.179

> <W(PB)>
-51.494

> <W(SA)>
2.315

> <Valence>
2.125

> <Coulomb>
69.686

> <VdW>
0.093

> <VdW6>
-6.766

> <VdW12>
6.859

> <Bond>
0.169

> <Angle>
0.621

> <Pdih>
1.336

> <Idih>
0.000

> <Tether>
0.000

$$$$
VeraChem MOL file


 26 25  0  0  0  0  0  0  0  0999 V2000     
   22.4520   18.1408   21.3328 N   0  3  0  0  0  0  0  0  0  0  0  0
   22.6811   17.2808   21.8551 H   0  0  0  0  0  0  0  0  0  0  0  0
   23.1310   18.8474   21.6562 H   0  0  0  0  0  0  0  0  0  0  0  0
   21.0397   18.5872   21.6540 C   0  0  0  0  0  0  0  0  0  0  0  0
   20.3549   17.8105   21.3042 H   0  0  0  0  0  0  0  0  0  0  0  0
   20.8405   19.5016   21.0894 H   0  0  0  0  0  0  0  0  0  0  0  0
   20.8088   18.8441   23.1542 C   0  0  0  0  0  0  0  0  0  0  0  0
   21.0260   17.9277   23.7192 H   0  0  0  0  0  0  0  0  0  0  0  0
   21.5100   19.6131   23.5050 H   0  0  0  0  0  0  0  0  0  0  0  0
   19.3583   19.2961   23.4336 C   0  0  0  0  0  0  0  0  0  0  0  0
   18.6597   18.5266   23.0763 H   0  0  0  0  0  0  0  0  0  0  0  0
   19.1431   20.2100   22.8623 H   0  0  0  0  0  0  0  0  0  0  0  0
   19.1147   19.5573   24.9375 C   0  0  0  0  0  0  0  0  0  0  0  0
   19.3296   18.6437   25.5090 H   0  0  0  0  0  0  0  0  0  0  0  0
   19.8130   20.3268   25.2949 H   0  0  0  0  0  0  0  0  0  0  0  0
   17.6638   20.0095   25.2166 C   0  0  0  0  0  0  0  0  0  0  0  0
   16.9612   19.2418   24.8630 H   0  0  0  0  0  0  0  0  0  0  0  0
   17.4446   20.9248   24.6491 H   0  0  0  0  0  0  0  0  0  0  0  0
   17.4243   20.2693   26.7193 C   0  0  0  0  0  0  0  0  0  0  0  0
   16.3894   20.5891   26.8973 H   0  0  0  0  0  0  0  0  0  0  0  0
   18.0896   21.0577   27.0947 H   0  0  0  0  0  0  0  0  0  0  0  0
   17.6025   19.3615   27.3104 H   0  0  0  0  0  0  0  0  0  0  0  0
   22.5943   17.9097   19.8347 C   0  0  0  0  0  0  0  0  0  0  0  0
   22.3797   18.8409   19.3057 H   0  0  0  0  0  0  0  0  0  0  0  0
   23.6155   17.5888   19.6172 H   0  0  0  0  0  0  0  0  0  0  0  0
   21.8899   17.1357   19.5222 H   0  0  0  0  0  0  0  0  0  0  0  0
  1  2  1  0  0  0  0
  1  3  1  0  0  0  0
  1  4  1  0  0  0  0
  4  5  1  0  0  0  0
  4  6  1  0  0  0  0
  4  7  1  0  0  0  0
  7  8  1  0  0  0  0
  7  9  1  0  0  0  0
  7 10  1  0  0  0  0
 10 11  1  0  0  0  0
 10 12  1  0  0  0  0
 10 13  1  0  0  0  0
 13 14  1  0  0  0  0
 13 15  1  0  0  0  0
 13 16  1  0  0  0  0
 16 17  1  0  0  0  0
 16 18  1  0  0  0  0
 16 19  1  0  0  0  0
 19 20  1  0  0  0  0
 19 21  1  0  0  0  0
 19 22  1  0  0  0  0
  1 23  1  0  0  0  0
 23 24  1  0  0  0  0
 23 25  1  0  0  0  0
 23 26  1  0  0  0  0
M  END
> <VConfSearch Rank>
921

> <Conf_Id>
11

> <Delta U+W>
0.000

> <U+W>
21.842

> <U>
70.357

> <W>
-48.515

> <W(PB)>
-50.856

> <W(SA)>
2.341

> <Valence>
1.714

> <Coulomb>
68.480

> <VdW>
0.163

> <VdW6>
-5.268

> <VdW12>
5.431

> <Bond>
0.126

> <Angle>
0.350

> <Pdih>
1.238

> <Idih>
0.000

> <Tether>
0.000

$$$$
VeraChem MOL file


 26 25  0  0  0  0  0  0  0  0999 V2000     
   17.4896   19.7205   21.1005 N   0  3  0  0  0  0  0  0  0  0  0  0
   16.4752   19.9099   21.1313 H   0  0  0  0  0  0  0  0  0  0  0  0
   17.5776   18.8238   20.5979 H   0  0  0  0  0  0  0  0  0  0  0  0
   18.0244   19.5840   22.5164 C   0  0  0  0  0  0  0  0  0  0  0  0
   17.3650   18.8923   23.0469 H   0  0  0  0  0  0  0  0  0  0  0  0
   17.9501   20.5612   23.0000 H   0  0  0  0  0  0  0  0  0  0  0  0
   19.4732   19.0630   22.6062 C   0  0  0  0  0  0  0  0  0  0  0  0
   19.5492   18.1050   22.0750 H   0  0  0  0  0  0  0  0  0  0  0  0
   20.1518   19.7645   22.1039 H   0  0  0  0  0  0  0  0  0  0  0  0
   19.9163   18.8801   24.0747 C   0  0  0  0  0  0  0  0  0  0  0  0
   19.2356   18.1792   24.5781 H   0  0  0  0  0  0  0  0  0  0  0  0
   19.8326   19.8394   24.6043 H   0  0  0  0  0  0  0  0  0  0  0  0
   21.3670   18.3567   24.1790 C   0  0  0  0  0  0  0  0  0  0  0  0
   21.4508   17.3976   23.6493 H   0  0  0  0  0  0  0  0  0  0  0  0
   22.0477   19.0575   23.6760 H   0  0  0  0  0  0  0  0  0  0  0  0
   21.8098   18.1739   25.6479 C   0  0  0  0  0  0  0  0  0  0  0  0
   21.1333   17.4715   26.1549 H   0  0  0  0  0  0  0  0  0  0  0  0
   21.7301   19.1313   26.1816 H   0  0  0  0  0  0  0  0  0  0  0  0
   23.2588   17.6512   25.7481 C   0  0  0  0  0  0  0  0  0  0  0  0
   23.5548   17.5280   26.7980 H   0  0  0  0  0  0  0  0  0  0  0  0
   23.9640   18.3500   25.2794 H   0  0  0  0  0  0  0  0  0  0  0  0
   23.3625   16.6772   25.2525 H   0  0  0  0  0  0  0  0  0  0  0  0
   18.2018   20.8375   20.3459 C   0  0  0  0  0  0  0  0  0  0  0  0
   19.2635   20.5974   20.2614 H   0  0  0  0  0  0  0  0  0  0  0  0
   17.7659   20.9291   19.3486 H   0  0  0  0  0  0  0  0  0  0  0  0
   18.0758   21.7756   20.8909 H   0  0  0  0  0  0  0  0  0  0  0  0
  1  2  1  0  0  0  0
  1  3  1  0  0  0  0
  1  4  1  0  0  0  0
  4  5  1  0  0  0  0
  4  6  1  0  0  0  0
  4  7  1  0  0  0  0
  7  8  1  0  0  0  0
  7  9  1  0  0  0  0
  7 10  1  0  0  0  0
 10 11  1  0  0  0  0
 10 12  1  0  0  0  0
 10 13  1  0  0  0  0
 13 14  1  0  0  0  0
 13 15  1  0  0  0  0
 13 16  1  0  0  0  0
 16 17  1  0  0  0  0
 16 18  1  0  0  0  0
 16 19  1  0  0  0  0
 19 20  1  0  0  0  0
 19 21  1  0  0  0  0
 19 22  1  0  0  0  0
  1 23  1  0  0  0  0
 23 24  1  0  0  0  0
 23 25  1  0  0  0  0
 23 26  1  0  0  0  0
M  END
> <VConfSearch Rank>
922

> <Conf_Id>
102

> <Delta U+W>
0.121

> <U+W>
21.963

> <U>
70.745

> <W>
-48.782

> <W(PB)>
-51.111

> <W(SA)>
2.329

> <Valence>
1.993

> <Coulomb>
68.323

> <VdW>
0.429

> <VdW6>
-5.973

> <VdW12>
6.402

> <Bond>
0.161

> <Angle>
0.472

> <Pdih>
1.360

> <Idih>
0.000

> <Tether>
0.000

$$$$
VeraChem MOL file


 26 25  0  0  0  0  0  0  0  0999 V2000     
   20.8395   15.8793   22.3791 N   0  3  0  0  0  0  0  0  0  0  0  0
   19.9888   15.7600   21.8076 H   0  0  0  0  0  0  0  0  0  0  0  0
   20.9837   14.9646   22.8359 H   0  0  0  0  0  0  0  0  0  0  0  0
   20.6159   16.9463   23.4377 C   0  0  0  0  0  0  0  0  0  0  0  0
   21.5488   17.0698   23.9935 H   0  0  0  0  0  0  0  0  0  0  0  0
   19.8583   16.5655   24.1274 H   0  0  0  0  0  0  0  0  0  0  0  0
   20.1503   18.3089   22.8851 C   0  0  0  0  0  0  0  0  0  0  0  0
   20.9163   18.7188   22.2142 H   0  0  0  0  0  0  0  0  0  0  0  0
   19.2403   18.1675   22.2871 H   0  0  0  0  0  0  0  0  0  0  0  0
   19.8727   19.3141   24.0248 C   0  0  0  0  0  0  0  0  0  0  0  0
   20.7837   19.4478   24.6247 H   0  0  0  0  0  0  0  0  0  0  0  0
   19.1071   18.9028   24.6975 H   0  0  0  0  0  0  0  0  0  0  0  0
   19.4038   20.6843   23.4844 C   0  0  0  0  0  0  0  0  0  0  0  0
   20.1693   21.0958   22.8120 H   0  0  0  0  0  0  0  0  0  0  0  0
   18.4930   20.5506   22.8843 H   0  0  0  0  0  0  0  0  0  0  0  0
   19.1261   21.6894   24.6245 C   0  0  0  0  0  0  0  0  0  0  0  0
   20.0350   21.8283   25.2265 H   0  0  0  0  0  0  0  0  0  0  0  0
   18.3588   21.2834   25.2986 H   0  0  0  0  0  0  0  0  0  0  0  0
   18.6583   23.0564   24.0810 C   0  0  0  0  0  0  0  0  0  0  0  0
   19.4203   23.5042   23.4299 H   0  0  0  0  0  0  0  0  0  0  0  0
   18.4663   23.7560   24.9049 H   0  0  0  0  0  0  0  0  0  0  0  0
   17.7310   22.9550   23.5024 H   0  0  0  0  0  0  0  0  0  0  0  0
   22.0402   16.2143   21.5014 C   0  0  0  0  0  0  0  0  0  0  0  0
   22.9272   16.3160   22.1304 H   0  0  0  0  0  0  0  0  0  0  0  0
   22.1907   15.4085   20.7794 H   0  0  0  0  0  0  0  0  0  0  0  0
   21.8516   17.1504   20.9720 H   0  0  0  0  0  0  0  0  0  0  0  0
  1  2  1  0  0  0  0
  1  3  1  0  0  0  0
  1  4  1  0  0  0  0
  4  5  1  0  0  0  0
  4  6  1  0  0  0  0
  4  7  1  0  0  0  0
  7  8  1  0  0  0  0
  7  9  1  0  0  0  0
  7 10  1  0  0  0  0
 10 11  1  0  0  0  0
 10 12  1  0  0  0  0
 10 13  1  0  0  0  0
 13 14  1  0  0  0  0
 13 15  1  0  0  0  0
 13 16  1  0  0  0  0
 16 17  1  0  0  0  0
 16 18  1  0  0  0  0
 16 19  1  0  0  0  0
 19 20  1  0  0  0  0
 19 21  1  0  0  0  0
 19 22  1  0  0  0  0
  1 23  1  0  0  0  0
 23 24  1  0  0  0  0
 23 25  1  0  0  0  0
 23 26  1  0  0  0  0
M  END
> <VConfSearch Rank>
923

> <Conf_Id>
37

> <Delta U+W>
0.125

> <U+W>
21.967

> <U>
70.745

> <W>
-48.778

> <W(PB)>
-51.115

> <W(SA)>
2.337

> <Valence>
1.993

> <Coulomb>
68.323

> <VdW>
0.429

> <VdW6>
-5.973

> <VdW12>
6.403

> <Bond>
0.161

> <Angle>
0.472

> <Pdih>
1.360

> <Idih>
0.000

> <Tether>
0.000

$$$$
VeraChem MOL file


 26 25  0  0  0  0  0  0  0  0999 V2000     
   21.7838   18.0228   21.0448 N   0  3  0  0  0  0  0  0  0  0  0  0
   22.5798   17.4894   21.4280 H   0  0  0  0  0  0  0  0  0  0  0  0
   22.1773   18.9308   20.7523 H   0  0  0  0  0  0  0  0  0  0  0  0
   20.7298   18.2296   22.1137 C   0  0  0  0  0  0  0  0  0  0  0  0
   20.3476   17.2472   22.4023 H   0  0  0  0  0  0  0  0  0  0  0  0
   19.9120   18.8004   21.6678 H   0  0  0  0  0  0  0  0  0  0  0  0
   21.2620   18.9647   23.3591 C   0  0  0  0  0  0  0  0  0  0  0  0
   22.1131   18.4044   23.7685 H   0  0  0  0  0  0  0  0  0  0  0  0
   21.6458   19.9521   23.0699 H   0  0  0  0  0  0  0  0  0  0  0  0
   20.1909   19.1263   24.4638 C   0  0  0  0  0  0  0  0  0  0  0  0
   20.6752   19.5536   25.3515 H   0  0  0  0  0  0  0  0  0  0  0  0
   19.8170   18.1362   24.7592 H   0  0  0  0  0  0  0  0  0  0  0  0
   19.0048   20.0271   24.0341 C   0  0  0  0  0  0  0  0  0  0  0  0
   19.3770   21.0235   23.7584 H   0  0  0  0  0  0  0  0  0  0  0  0
   18.5361   19.6122   23.1320 H   0  0  0  0  0  0  0  0  0  0  0  0
   17.9122   20.1678   25.1219 C   0  0  0  0  0  0  0  0  0  0  0  0
   17.5279   19.1747   25.3936 H   0  0  0  0  0  0  0  0  0  0  0  0
   17.0621   20.7198   24.6972 H   0  0  0  0  0  0  0  0  0  0  0  0
   18.3969   20.9037   26.3921 C   0  0  0  0  0  0  0  0  0  0  0  0
   19.1628   20.3276   26.9257 H   0  0  0  0  0  0  0  0  0  0  0  0
   17.5614   21.0618   27.0863 H   0  0  0  0  0  0  0  0  0  0  0  0
   18.8163   21.8871   26.1432 H   0  0  0  0  0  0  0  0  0  0  0  0
   21.1772   17.2948   19.8532 C   0  0  0  0  0  0  0  0  0  0  0  0
   20.3599   17.8932   19.4447 H   0  0  0  0  0  0  0  0  0  0  0  0
   21.9466   17.1521   19.0911 H   0  0  0  0  0  0  0  0  0  0  0  0
   20.7978   16.3243   20.1804 H   0  0  0  0  0  0  0  0  0  0  0  0
  1  2  1  0  0  0  0
  1  3  1  0  0  0  0
  1  4  1  0  0  0  0
  4  5  1  0  0  0  0
  4  6  1  0  0  0  0
  4  7  1  0  0  0  0
  7  8  1  0  0  0  0
  7  9  1  0  0  0  0
  7 10  1  0  0  0  0
 10 11  1  0  0  0  0
 10 12  1  0  0  0  0
 10 13  1  0  0  0  0
 13 14  1  0  0  0  0
 13 15  1  0  0  0  0
 13 16  1  0  0  0  0
 16 17  1  0  0  0  0
 16 18  1  0  0  0  0
 16 19  1  0  0  0  0
 19 20  1  0  0  0  0
 19 21  1  0  0  0  0
 19 22  1  0  0  0  0
  1 23  1  0  0  0  0
 23 24  1  0  0  0  0
 23 25  1  0  0  0  0
 23 26  1  0  0  0  0
M  END
> <VConfSearch Rank>
924

> <Conf_Id>
137

> <Delta U+W>
1.038

> <U+W>
22.880

> <U>
71.810

> <W>
-48.930

> <W(PB)>
-51.257

> <W(SA)>
2.327

> <Valence>
2.568

> <Coulomb>
68.877

> <VdW>
0.364

> <VdW6>
-6.470

> <VdW12>
6.834

> <Bond>
0.191

> <Angle>
0.752

> <Pdih>
1.626

> <Idih>
0.000

> <Tether>
0.000

$$$$
VeraChem MOL file


 26 25  0  0  0  0  0  0  0  0999 V2000     
   22.2189   21.1216   23.1081 N   0  3  0  0  0  0  0  0  0  0  0  0
   22.6759   20.6410   23.8986 H   0  0  0  0  0  0  0  0  0  0  0  0
   21.6587   21.8770   23.5329 H   0  0  0  0  0  0  0  0  0  0  0  0
   21.3176   20.1591   22.3609 C   0  0  0  0  0  0  0  0  0  0  0  0
   21.9463   19.3732   21.9349 H   0  0  0  0  0  0  0  0  0  0  0  0
   20.8487   20.7077   21.5402 H   0  0  0  0  0  0  0  0  0  0  0  0
   20.2307   19.5278   23.2498 C   0  0  0  0  0  0  0  0  0  0  0  0
   20.7127   18.9964   24.0798 H   0  0  0  0  0  0  0  0  0  0  0  0
   19.6118   20.3219   23.6883 H   0  0  0  0  0  0  0  0  0  0  0  0
   19.3371   18.5570   22.4421 C   0  0  0  0  0  0  0  0  0  0  0  0
   19.9483   17.7352   22.0438 H   0  0  0  0  0  0  0  0  0  0  0  0
   18.9306   19.0885   21.5703 H   0  0  0  0  0  0  0  0  0  0  0  0
   18.1554   17.9769   23.2580 C   0  0  0  0  0  0  0  0  0  0  0  0
   17.5341   18.7981   23.6415 H   0  0  0  0  0  0  0  0  0  0  0  0
   17.5146   17.3980   22.5786 H   0  0  0  0  0  0  0  0  0  0  0  0
   18.5976   17.0667   24.4285 C   0  0  0  0  0  0  0  0  0  0  0  0
   19.1746   17.6451   25.1622 H   0  0  0  0  0  0  0  0  0  0  0  0
   19.2614   16.2753   24.0532 H   0  0  0  0  0  0  0  0  0  0  0  0
   17.3870   16.4242   25.1389 C   0  0  0  0  0  0  0  0  0  0  0  0
   16.7189   17.1913   25.5517 H   0  0  0  0  0  0  0  0  0  0  0  0
   17.7181   15.7848   25.9675 H   0  0  0  0  0  0  0  0  0  0  0  0
   16.8060   15.8022   24.4455 H   0  0  0  0  0  0  0  0  0  0  0  0
   23.2606   21.6983   22.1594 C   0  0  0  0  0  0  0  0  0  0  0  0
   22.7546   22.2298   21.3504 H   0  0  0  0  0  0  0  0  0  0  0  0
   23.9028   22.3895   22.7098 H   0  0  0  0  0  0  0  0  0  0  0  0
   23.8618   20.8843   21.7484 H   0  0  0  0  0  0  0  0  0  0  0  0
  1  2  1  0  0  0  0
  1  3  1  0  0  0  0
  1  4  1  0  0  0  0
  4  5  1  0  0  0  0
  4  6  1  0  0  0  0
  4  7  1  0  0  0  0
  7  8  1  0  0  0  0
  7  9  1  0  0  0  0
  7 10  1  0  0  0  0
 10 11  1  0  0  0  0
 10 12  1  0  0  0  0
 10 13  1  0  0  0  0
 13 14  1  0  0  0  0
 13 15  1  0  0  0  0
 13 16  1  0  0  0  0
 16 17  1  0  0  0  0
 16 18  1  0  0  0  0
 16 19  1  0  0  0  0
 19 20  1  0  0  0  0
 19 21  1  0  0  0  0
 19 22  1  0  0  0  0
  1 23  1  0  0  0  0
 23 24  1  0  0  0  0
 23 25  1  0  0  0  0
 23 26  1  0  0  0  0
M  END
> <VConfSearch Rank>
925

> <Conf_Id>
35

> <Delta U+W>
0.670

> <U+W>
22.512

> <U>
71.348

> <W>
-48.837

> <W(PB)>
-51.150

> <W(SA)>
2.313

> <Valence>
2.262

> <Coulomb>
68.807

> <VdW>
0.280

> <VdW6>
-5.915

> <VdW12>
6.195

> <Bond>
0.164

> <Angle>
0.622

> <Pdih>
1.475

> <Idih>
0.000

> <Tether>
0.000

$$$$
VeraChem MOL file


 26 25  0  0  0  0  0  0  0  0999 V2000     
   18.9209   16.4865   22.2877 N   0  3  0  0  0  0  0  0  0  0  0  0
   19.5809   16.4038   21.4988 H   0  0  0  0  0  0  0  0  0  0  0  0
   18.1244   17.0320   21.9233 H   0  0  0  0  0  0  0  0  0  0  0  0
   19.5742   17.2212   23.4411 C   0  0  0  0  0  0  0  0  0  0  0  0
   20.4143   16.6160   23.7911 H   0  0  0  0  0  0  0  0  0  0  0  0
   18.8423   17.2945   24.2495 H   0  0  0  0  0  0  0  0  0  0  0  0
   20.0713   18.6284   23.0635 C   0  0  0  0  0  0  0  0  0  0  0  0
   20.7939   18.5511   22.2403 H   0  0  0  0  0  0  0  0  0  0  0  0
   19.2232   19.2198   22.6964 H   0  0  0  0  0  0  0  0  0  0  0  0
   20.7312   19.3350   24.2713 C   0  0  0  0  0  0  0  0  0  0  0  0
   21.5232   18.6880   24.6736 H   0  0  0  0  0  0  0  0  0  0  0  0
   19.9944   19.4567   25.0774 H   0  0  0  0  0  0  0  0  0  0  0  0
   21.3511   20.7108   23.9226 C   0  0  0  0  0  0  0  0  0  0  0  0
   21.8942   21.0808   24.8033 H   0  0  0  0  0  0  0  0  0  0  0  0
   22.1008   20.5867   23.1289 H   0  0  0  0  0  0  0  0  0  0  0  0
   20.3081   21.7703   23.4941 C   0  0  0  0  0  0  0  0  0  0  0  0
   19.5293   21.8575   24.2646 H   0  0  0  0  0  0  0  0  0  0  0  0
   19.8069   21.4572   22.5686 H   0  0  0  0  0  0  0  0  0  0  0  0
   20.9596   23.1513   23.2673 C   0  0  0  0  0  0  0  0  0  0  0  0
   21.4374   23.5187   24.1848 H   0  0  0  0  0  0  0  0  0  0  0  0
   20.2069   23.8895   22.9613 H   0  0  0  0  0  0  0  0  0  0  0  0
   21.7232   23.1029   22.4800 H   0  0  0  0  0  0  0  0  0  0  0  0
   18.4603   15.1094   22.7451 C   0  0  0  0  0  0  0  0  0  0  0  0
   17.7386   15.2234   23.5569 H   0  0  0  0  0  0  0  0  0  0  0  0
   17.9920   14.5911   21.9053 H   0  0  0  0  0  0  0  0  0  0  0  0
   19.3240   14.5396   23.0948 H   0  0  0  0  0  0  0  0  0  0  0  0
  1  2  1  0  0  0  0
  1  3  1  0  0  0  0
  1  4  1  0  0  0  0
  4  5  1  0  0  0  0
  4  6  1  0  0  0  0
  4  7  1  0  0  0  0
  7  8  1  0  0  0  0
  7  9  1  0  0  0  0
  7 10  1  0  0  0  0
 10 11  1  0  0  0  0
 10 12  1  0  0  0  0
 10 13  1  0  0  0  0
 13 14  1  0  0  0  0
 13 15  1  0  0  0  0
 13 16  1  0  0  0  0
 16 17  1  0  0  0  0
 16 18  1  0  0  0  0
 16 19  1  0  0  0  0
 19 20  1  0  0  0  0
 19 21  1  0  0  0  0
 19 22  1  0  0  0  0
  1 23  1  0  0  0  0
 23 24  1  0  0  0  0
 23 25  1  0  0  0  0
 23 26  1  0  0  0  0
M  END
> <VConfSearch Rank>
926

> <Conf_Id>
36

> <Delta U+W>
0.662

> <U+W>
22.504

> <U>
71.348

> <W>
-48.844

> <W(PB)>
-51.157

> <W(SA)>
2.313

> <Valence>
2.262

> <Coulomb>
68.807

> <VdW>
0.280

> <VdW6>
-5.916

> <VdW12>
6.195

> <Bond>
0.164

> <Angle>
0.622

> <Pdih>
1.475

> <Idih>
0.000

> <Tether>
0.000

$$$$
VeraChem MOL file


 26 25  0  0  0  0  0  0  0  0999 V2000     
   19.4938   19.8100   26.1531 N   0  3  0  0  0  0  0  0  0  0  0  0
   20.4080   20.2309   26.3806 H   0  0  0  0  0  0  0  0  0  0  0  0
   19.3807   19.0256   26.8140 H   0  0  0  0  0  0  0  0  0  0  0  0
   19.4948   19.2964   24.7273 C   0  0  0  0  0  0  0  0  0  0  0  0
   19.6216   20.1555   24.0644 H   0  0  0  0  0  0  0  0  0  0  0  0
   18.5166   18.8504   24.5308 H   0  0  0  0  0  0  0  0  0  0  0  0
   20.6012   18.2592   24.4547 C   0  0  0  0  0  0  0  0  0  0  0  0
   21.5841   18.7067   24.6538 H   0  0  0  0  0  0  0  0  0  0  0  0
   20.4890   17.4219   25.1563 H   0  0  0  0  0  0  0  0  0  0  0  0
   20.5630   17.7108   23.0086 C   0  0  0  0  0  0  0  0  0  0  0  0
   19.5883   17.2392   22.8213 H   0  0  0  0  0  0  0  0  0  0  0  0
   21.3156   16.9158   22.9135 H   0  0  0  0  0  0  0  0  0  0  0  0
   20.8321   18.7968   21.9390 C   0  0  0  0  0  0  0  0  0  0  0  0
   20.0579   19.5742   21.9898 H   0  0  0  0  0  0  0  0  0  0  0  0
   21.7918   19.2892   22.1486 H   0  0  0  0  0  0  0  0  0  0  0  0
   20.8601   18.2033   20.5127 C   0  0  0  0  0  0  0  0  0  0  0  0
   19.9024   17.7087   20.2978 H   0  0  0  0  0  0  0  0  0  0  0  0
   21.6378   17.4295   20.4475 H   0  0  0  0  0  0  0  0  0  0  0  0
   21.1268   19.2875   19.4467 C   0  0  0  0  0  0  0  0  0  0  0  0
   20.3456   20.0585   19.4633 H   0  0  0  0  0  0  0  0  0  0  0  0
   21.1436   18.8469   18.4414 H   0  0  0  0  0  0  0  0  0  0  0  0
   22.0945   19.7777   19.6155 H   0  0  0  0  0  0  0  0  0  0  0  0
   18.3767   20.8280   26.3360 C   0  0  0  0  0  0  0  0  0  0  0  0
   17.4176   20.3511   26.1220 H   0  0  0  0  0  0  0  0  0  0  0  0
   18.3869   21.1896   27.3667 H   0  0  0  0  0  0  0  0  0  0  0  0
   18.5360   21.6632   25.6505 H   0  0  0  0  0  0  0  0  0  0  0  0
  1  2  1  0  0  0  0
  1  3  1  0  0  0  0
  1  4  1  0  0  0  0
  4  5  1  0  0  0  0
  4  6  1  0  0  0  0
  4  7  1  0  0  0  0
  7  8  1  0  0  0  0
  7  9  1  0  0  0  0
  7 10  1  0  0  0  0
 10 11  1  0  0  0  0
 10 12  1  0  0  0  0
 10 13  1  0  0  0  0
 13 14  1  0  0  0  0
 13 15  1  0  0  0  0
 13 16  1  0  0  0  0
 16 17  1  0  0  0  0
 16 18  1  0  0  0  0
 16 19  1  0  0  0  0
 19 20  1  0  0  0  0
 19 21  1  0  0  0  0
 19 22  1  0  0  0  0
  1 23  1  0  0  0  0
 23 24  1  0  0  0  0
 23 25  1  0  0  0  0
 23 26  1  0  0  0  0
M  END
> <VConfSearch Rank>
927

> <Conf_Id>
46

> <Delta U+W>
0.496

> <U+W>
22.338

> <U>
71.138

> <W>
-48.799

> <W(PB)>
-51.136

> <W(SA)>
2.337

> <Valence>
2.016

> <Coulomb>
68.932

> <VdW>
0.190

> <VdW6>
-5.902

> <VdW12>
6.092

> <Bond>
0.149

> <Angle>
0.477

> <Pdih>
1.390

> <Idih>
0.000

> <Tether>
0.000

$$$$
VeraChem MOL file


 26 25  0  0  0  0  0  0  0  0999 V2000     
   20.6456   21.9114   22.4654 N   0  3  0  0  0  0  0  0  0  0  0  0
   20.6176   22.1264   21.4565 H   0  0  0  0  0  0  0  0  0  0  0  0
   21.6474   21.8674   22.7088 H   0  0  0  0  0  0  0  0  0  0  0  0
   19.9829   20.5753   22.7339 C   0  0  0  0  0  0  0  0  0  0  0  0
   18.9300   20.6609   22.4538 H   0  0  0  0  0  0  0  0  0  0  0  0
   20.0397   20.3860   23.8084 H   0  0  0  0  0  0  0  0  0  0  0  0
   20.6308   19.4086   21.9637 C   0  0  0  0  0  0  0  0  0  0  0  0
   20.6069   19.6312   20.8886 H   0  0  0  0  0  0  0  0  0  0  0  0
   21.6892   19.3237   22.2437 H   0  0  0  0  0  0  0  0  0  0  0  0
   19.9172   18.0588   22.2127 C   0  0  0  0  0  0  0  0  0  0  0  0
   20.3719   17.2955   21.5660 H   0  0  0  0  0  0  0  0  0  0  0  0
   18.8650   18.1385   21.9059 H   0  0  0  0  0  0  0  0  0  0  0  0
   19.9977   17.5910   23.6860 C   0  0  0  0  0  0  0  0  0  0  0  0
   21.0498   17.5444   23.9997 H   0  0  0  0  0  0  0  0  0  0  0  0
   19.5028   18.3216   24.3398 H   0  0  0  0  0  0  0  0  0  0  0  0
   19.3405   16.2069   23.8855 C   0  0  0  0  0  0  0  0  0  0  0  0
   19.8339   15.4651   23.2420 H   0  0  0  0  0  0  0  0  0  0  0  0
   18.2878   16.2475   23.5725 H   0  0  0  0  0  0  0  0  0  0  0  0
   19.4199   15.7422   25.3555 C   0  0  0  0  0  0  0  0  0  0  0  0
   20.4629   15.6593   25.6877 H   0  0  0  0  0  0  0  0  0  0  0  0
   18.9488   14.7581   25.4768 H   0  0  0  0  0  0  0  0  0  0  0  0
   18.9041   16.4466   26.0209 H   0  0  0  0  0  0  0  0  0  0  0  0
   19.9495   23.0047   23.2640 C   0  0  0  0  0  0  0  0  0  0  0  0
   20.4362   23.9614   23.0615 H   0  0  0  0  0  0  0  0  0  0  0  0
   18.8999   23.0544   22.9658 H   0  0  0  0  0  0  0  0  0  0  0  0
   20.0211   22.7726   24.3289 H   0  0  0  0  0  0  0  0  0  0  0  0
  1  2  1  0  0  0  0
  1  3  1  0  0  0  0
  1  4  1  0  0  0  0
  4  5  1  0  0  0  0
  4  6  1  0  0  0  0
  4  7  1  0  0  0  0
  7  8  1  0  0  0  0
  7  9  1  0  0  0  0
  7 10  1  0  0  0  0
 10 11  1  0  0  0  0
 10 12  1  0  0  0  0
 10 13  1  0  0  0  0
 13 14  1  0  0  0  0
 13 15  1  0  0  0  0
 13 16  1  0  0  0  0
 16 17  1  0  0  0  0
 16 18  1  0  0  0  0
 16 19  1  0  0  0  0
 19 20  1  0  0  0  0
 19 21  1  0  0  0  0
 19 22  1  0  0  0  0
  1 23  1  0  0  0  0
 23 24  1  0  0  0  0
 23 25  1  0  0  0  0
 23 26  1  0  0  0  0
M  END
> <VConfSearch Rank>
928

> <Conf_Id>
45

> <Delta U+W>
0.471

> <U+W>
22.313

> <U>
71.138

> <W>
-48.825

> <W(PB)>
-51.169

> <W(SA)>
2.344

> <Valence>
2.016

> <Coulomb>
68.932

> <VdW>
0.190

> <VdW6>
-5.902

> <VdW12>
6.092

> <Bond>
0.149

> <Angle>
0.477

> <Pdih>
1.390

> <Idih>
0.000

> <Tether>
0.000

$$$$
VeraChem MOL file


 26 25  0  0  0  0  0  0  0  0999 V2000     
   20.1096   21.4141   24.4533 N   0  3  0  0  0  0  0  0  0  0  0  0
   21.0440   20.9905   24.5563 H   0  0  0  0  0  0  0  0  0  0  0  0
   19.5263   20.9788   25.1847 H   0  0  0  0  0  0  0  0  0  0  0  0
   19.5450   21.1018   23.0809 C   0  0  0  0  0  0  0  0  0  0  0  0
   20.1924   21.5701   22.3353 H   0  0  0  0  0  0  0  0  0  0  0  0
   18.5581   21.5673   23.0165 H   0  0  0  0  0  0  0  0  0  0  0  0
   19.4195   19.5943   22.7855 C   0  0  0  0  0  0  0  0  0  0  0  0
   18.7667   19.1344   23.5380 H   0  0  0  0  0  0  0  0  0  0  0  0
   18.9184   19.4713   21.8162 H   0  0  0  0  0  0  0  0  0  0  0  0
   20.7934   18.8790   22.7479 C   0  0  0  0  0  0  0  0  0  0  0  0
   21.2663   18.9168   23.7383 H   0  0  0  0  0  0  0  0  0  0  0  0
   21.4605   19.4238   22.0653 H   0  0  0  0  0  0  0  0  0  0  0  0
   20.7090   17.4056   22.2788 C   0  0  0  0  0  0  0  0  0  0  0  0
   20.2586   17.3626   21.2775 H   0  0  0  0  0  0  0  0  0  0  0  0
   21.7305   17.0145   22.1734 H   0  0  0  0  0  0  0  0  0  0  0  0
   19.9185   16.4926   23.2460 C   0  0  0  0  0  0  0  0  0  0  0  0
   18.8723   16.8206   23.3077 H   0  0  0  0  0  0  0  0  0  0  0  0
   20.3378   16.5729   24.2587 H   0  0  0  0  0  0  0  0  0  0  0  0
   19.9544   15.0172   22.7935 C   0  0  0  0  0  0  0  0  0  0  0  0
   19.5137   14.8998   21.7950 H   0  0  0  0  0  0  0  0  0  0  0  0
   19.3870   14.3846   23.4885 H   0  0  0  0  0  0  0  0  0  0  0  0
   20.9845   14.6391   22.7592 H   0  0  0  0  0  0  0  0  0  0  0  0
   20.1820   22.9215   24.6535 C   0  0  0  0  0  0  0  0  0  0  0  0
   19.1778   23.3432   24.5713 H   0  0  0  0  0  0  0  0  0  0  0  0
   20.5904   23.1321   25.6445 H   0  0  0  0  0  0  0  0  0  0  0  0
   20.8292   23.3548   23.8879 H   0  0  0  0  0  0  0  0  0  0  0  0
  1  2  1  0  0  0  0
  1  3  1  0  0  0  0
  1  4  1  0  0  0  0
  4  5  1  0  0  0  0
  4  6  1  0  0  0  0
  4  7  1  0  0  0  0
  7  8  1  0  0  0  0
  7  9  1  0  0  0  0
  7 10  1  0  0  0  0
 10 11  1  0  0  0  0
 10 12  1  0  0  0  0
 10 13  1  0  0  0  0
 13 14  1  0  0  0  0
 13 15  1  0  0  0  0
 13 16  1  0  0  0  0
 16 17  1  0  0  0  0
 16 18  1  0  0  0  0
 16 19  1  0  0  0  0
 19 20  1  0  0  0  0
 19 21  1  0  0  0  0
 19 22  1  0  0  0  0
  1 23  1  0  0  0  0
 23 24  1  0  0  0  0
 23 25  1  0  0  0  0
 23 26  1  0  0  0  0
M  END
> <VConfSearch Rank>
929

> <Conf_Id>
143

> <Delta U+W>
0.915

> <U+W>
22.757

> <U>
71.994

> <W>
-49.237

> <W(PB)>
-51.537

> <W(SA)>
2.300

> <Valence>
2.376

> <Coulomb>
69.315

> <VdW>
0.303

> <VdW6>
-6.508

> <VdW12>
6.810

> <Bond>
0.182

> <Angle>
0.660

> <Pdih>
1.534

> <Idih>
0.000

> <Tether>
0.000

$$$$
VeraChem MOL file


 26 25  0  0  0  0  0  0  0  0999 V2000     
   19.4765   21.5992   23.2138 N   0  3  0  0  0  0  0  0  0  0  0  0
   19.3283   21.4228   24.2187 H   0  0  0  0  0  0  0  0  0  0  0  0
   18.5604   21.4384   22.7670 H   0  0  0  0  0  0  0  0  0  0  0  0
   20.5041   20.6311   22.6598 C   0  0  0  0  0  0  0  0  0  0  0  0
   21.4556   20.8239   23.1618 H   0  0  0  0  0  0  0  0  0  0  0  0
   20.6274   20.8563   21.5974 H   0  0  0  0  0  0  0  0  0  0  0  0
   20.1216   19.1468   22.8247 C   0  0  0  0  0  0  0  0  0  0  0  0
   19.1510   18.9620   22.3456 H   0  0  0  0  0  0  0  0  0  0  0  0
   20.8646   18.5479   22.2841 H   0  0  0  0  0  0  0  0  0  0  0  0
   20.0803   18.7003   24.3066 C   0  0  0  0  0  0  0  0  0  0  0  0
   19.4159   19.3670   24.8716 H   0  0  0  0  0  0  0  0  0  0  0  0
   21.0790   18.8176   24.7497 H   0  0  0  0  0  0  0  0  0  0  0  0
   19.5897   17.2450   24.5225 C   0  0  0  0  0  0  0  0  0  0  0  0
   19.5629   17.0632   25.6059 H   0  0  0  0  0  0  0  0  0  0  0  0
   18.5505   17.1421   24.1808 H   0  0  0  0  0  0  0  0  0  0  0  0
   20.4785   16.1528   23.8730 C   0  0  0  0  0  0  0  0  0  0  0  0
   20.4916   15.2741   24.5331 H   0  0  0  0  0  0  0  0  0  0  0  0
   21.5204   16.4961   23.8079 H   0  0  0  0  0  0  0  0  0  0  0  0
   19.9741   15.6964   22.4837 C   0  0  0  0  0  0  0  0  0  0  0  0
   19.9529   16.5190   21.7607 H   0  0  0  0  0  0  0  0  0  0  0  0
   18.9601   15.2815   22.5522 H   0  0  0  0  0  0  0  0  0  0  0  0
   20.6266   14.9131   22.0768 H   0  0  0  0  0  0  0  0  0  0  0  0
   19.9384   23.0318   22.9862 C   0  0  0  0  0  0  0  0  0  0  0  0
   20.0575   23.2046   21.9143 H   0  0  0  0  0  0  0  0  0  0  0  0
   19.1903   23.7179   23.3896 H   0  0  0  0  0  0  0  0  0  0  0  0
   20.8928   23.1863   23.4943 H   0  0  0  0  0  0  0  0  0  0  0  0
  1  2  1  0  0  0  0
  1  3  1  0  0  0  0
  1  4  1  0  0  0  0
  4  5  1  0  0  0  0
  4  6  1  0  0  0  0
  4  7  1  0  0  0  0
  7  8  1  0  0  0  0
  7  9  1  0  0  0  0
  7 10  1  0  0  0  0
 10 11  1  0  0  0  0
 10 12  1  0  0  0  0
 10 13  1  0  0  0  0
 13 14  1  0  0  0  0
 13 15  1  0  0  0  0
 13 16  1  0  0  0  0
 16 17  1  0  0  0  0
 16 18  1  0  0  0  0
 16 19  1  0  0  0  0
 19 20  1  0  0  0  0
 19 21  1  0  0  0  0
 19 22  1  0  0  0  0
  1 23  1  0  0  0  0
 23 24  1  0  0  0  0
 23 25  1  0  0  0  0
 23 26  1  0  0  0  0
M  END
> <VConfSearch Rank>
930

> <Conf_Id>
76

> <Delta U+W>
3.468

> <U+W>
25.310

> <U>
74.594

> <W>
-49.283

> <W(PB)>
-51.537

> <W(SA)>
2.253

> <Valence>
4.886

> <Coulomb>
69.332

> <VdW>
0.376

> <VdW6>
-7.329

> <VdW12>
7.705

> <Bond>
0.232

> <Angle>
1.251

> <Pdih>
3.403

> <Idih>
0.000

> <Tether>
0.000

$$$$
VeraChem MOL file


 26 25  0  0  0  0  0  0  0  0999 V2000     
   17.8787   19.4208   24.9232 N   0  3  0  0  0  0  0  0  0  0  0  0
   18.4819   20.0615   25.4621 H   0  0  0  0  0  0  0  0  0  0  0  0
   17.8595   18.5419   25.4635 H   0  0  0  0  0  0  0  0  0  0  0  0
   18.4698   19.1772   23.5491 C   0  0  0  0  0  0  0  0  0  0  0  0
   18.4789   20.1302   23.0143 H   0  0  0  0  0  0  0  0  0  0  0  0
   17.8078   18.4897   23.0165 H   0  0  0  0  0  0  0  0  0  0  0  0
   19.8942   18.5948   23.5932 C   0  0  0  0  0  0  0  0  0  0  0  0
   20.5451   19.2776   24.1506 H   0  0  0  0  0  0  0  0  0  0  0  0
   19.8809   17.6463   24.1463 H   0  0  0  0  0  0  0  0  0  0  0  0
   20.4484   18.3544   22.1683 C   0  0  0  0  0  0  0  0  0  0  0  0
   20.4137   19.2830   21.5818 H   0  0  0  0  0  0  0  0  0  0  0  0
   19.7794   17.6481   21.6570 H   0  0  0  0  0  0  0  0  0  0  0  0
   21.8846   17.7683   22.1532 C   0  0  0  0  0  0  0  0  0  0  0  0
   22.0556   17.1533   23.0474 H   0  0  0  0  0  0  0  0  0  0  0  0
   21.9634   17.0787   21.3013 H   0  0  0  0  0  0  0  0  0  0  0  0
   23.0139   18.8202   22.0059 C   0  0  0  0  0  0  0  0  0  0  0  0
   22.8938   19.3594   21.0558 H   0  0  0  0  0  0  0  0  0  0  0  0
   23.9749   18.2916   21.9352 H   0  0  0  0  0  0  0  0  0  0  0  0
   23.0934   19.8375   23.1653 C   0  0  0  0  0  0  0  0  0  0  0  0
   23.1468   19.3288   24.1365 H   0  0  0  0  0  0  0  0  0  0  0  0
   22.2252   20.5079   23.1677 H   0  0  0  0  0  0  0  0  0  0  0  0
   23.9893   20.4637   23.0649 H   0  0  0  0  0  0  0  0  0  0  0  0
   16.4753   19.9955   24.7888 C   0  0  0  0  0  0  0  0  0  0  0  0
   16.5249   20.9404   24.2432 H   0  0  0  0  0  0  0  0  0  0  0  0
   15.8474   19.2864   24.2448 H   0  0  0  0  0  0  0  0  0  0  0  0
   16.0611   20.1661   25.7850 H   0  0  0  0  0  0  0  0  0  0  0  0
  1  2  1  0  0  0  0
  1  3  1  0  0  0  0
  1  4  1  0  0  0  0
  4  5  1  0  0  0  0
  4  6  1  0  0  0  0
  4  7  1  0  0  0  0
  7  8  1  0  0  0  0
  7  9  1  0  0  0  0
  7 10  1  0  0  0  0
 10 11  1  0  0  0  0
 10 12  1  0  0  0  0
 10 13  1  0  0  0  0
 13 14  1  0  0  0  0
 13 15  1  0  0  0  0
 13 16  1  0  0  0  0
 16 17  1  0  0  0  0
 16 18  1  0  0  0  0
 16 19  1  0  0  0  0
 19 20  1  0  0  0  0
 19 21  1  0  0  0  0
 19 22  1  0  0  0  0
  1 23  1  0  0  0  0
 23 24  1  0  0  0  0
 23 25  1  0  0  0  0
 23 26  1  0  0  0  0
M  END
> <VConfSearch Rank>
931

> <Conf_Id>
123

> <Delta U+W>
3.101

> <U+W>
24.943

> <U>
74.070

> <W>
-49.127

> <W(PB)>
-51.421

> <W(SA)>
2.295

> <Valence>
4.690

> <Coulomb>
69.115

> <VdW>
0.266

> <VdW6>
-6.809

> <VdW12>
7.075

> <Bond>
0.212

> <Angle>
1.133

> <Pdih>
3.345

> <Idih>
0.000

> <Tether>
0.000

$$$$
VeraChem MOL file


 26 25  0  0  0  0  0  0  0  0999 V2000     
   20.5356   19.4690   25.8904 N   0  3  0  0  0  0  0  0  0  0  0  0
   20.7423   18.5168   26.2297 H   0  0  0  0  0  0  0  0  0  0  0  0
   19.5093   19.5143   25.8019 H   0  0  0  0  0  0  0  0  0  0  0  0
   21.1853   19.6937   24.5386 C   0  0  0  0  0  0  0  0  0  0  0  0
   22.2676   19.6380   24.6802 H   0  0  0  0  0  0  0  0  0  0  0  0
   20.9361   20.7053   24.2086 H   0  0  0  0  0  0  0  0  0  0  0  0
   20.7584   18.6772   23.4613 C   0  0  0  0  0  0  0  0  0  0  0  0
   21.3614   18.8563   22.5641 H   0  0  0  0  0  0  0  0  0  0  0  0
   21.0052   17.6622   23.7996 H   0  0  0  0  0  0  0  0  0  0  0  0
   19.2489   18.7668   23.1203 C   0  0  0  0  0  0  0  0  0  0  0  0
   18.9731   19.8015   22.8736 H   0  0  0  0  0  0  0  0  0  0  0  0
   18.6718   18.5034   24.0167 H   0  0  0  0  0  0  0  0  0  0  0  0
   18.8198   17.8150   21.9730 C   0  0  0  0  0  0  0  0  0  0  0  0
   19.4628   16.9242   21.9552 H   0  0  0  0  0  0  0  0  0  0  0  0
   17.8092   17.4450   22.1950 H   0  0  0  0  0  0  0  0  0  0  0  0
   18.7774   18.4702   20.5686 C   0  0  0  0  0  0  0  0  0  0  0  0
   18.0533   19.2970   20.5696 H   0  0  0  0  0  0  0  0  0  0  0  0
   18.3935   17.7316   19.8510 H   0  0  0  0  0  0  0  0  0  0  0  0
   20.1430   18.9864   20.0645 C   0  0  0  0  0  0  0  0  0  0  0  0
   20.9049   18.1973   20.1058 H   0  0  0  0  0  0  0  0  0  0  0  0
   20.4906   19.8406   20.6584 H   0  0  0  0  0  0  0  0  0  0  0  0
   20.0648   19.3226   19.0226 H   0  0  0  0  0  0  0  0  0  0  0  0
   21.0320   20.5104   26.8837 C   0  0  0  0  0  0  0  0  0  0  0  0
   20.7738   21.5068   26.5184 H   0  0  0  0  0  0  0  0  0  0  0  0
   20.5565   20.3375   27.8517 H   0  0  0  0  0  0  0  0  0  0  0  0
   22.1160   20.4224   26.9843 H   0  0  0  0  0  0  0  0  0  0  0  0
  1  2  1  0  0  0  0
  1  3  1  0  0  0  0
  1  4  1  0  0  0  0
  4  5  1  0  0  0  0
  4  6  1  0  0  0  0
  4  7  1  0  0  0  0
  7  8  1  0  0  0  0
  7  9  1  0  0  0  0
  7 10  1  0  0  0  0
 10 11  1  0  0  0  0
 10 12  1  0  0  0  0
 10 13  1  0  0  0  0
 13 14  1  0  0  0  0
 13 15  1  0  0  0  0
 13 16  1  0  0  0  0
 16 17  1  0  0  0  0
 16 18  1  0  0  0  0
 16 19  1  0  0  0  0
 19 20  1  0  0  0  0
 19 21  1  0  0  0  0
 19 22  1  0  0  0  0
  1 23  1  0  0  0  0
 23 24  1  0  0  0  0
 23 25  1  0  0  0  0
 23 26  1  0  0  0  0
M  END
> <VConfSearch Rank>
932

> <Conf_Id>
111

> <Delta U+W>
3.383

> <U+W>
25.225

> <U>
74.516

> <W>
-49.292

> <W(PB)>
-51.558

> <W(SA)>
2.266

> <Valence>
4.842

> <Coulomb>
69.333

> <VdW>
0.342

> <VdW6>
-7.369

> <VdW12>
7.711

> <Bond>
0.232

> <Angle>
1.153

> <Pdih>
3.457

> <Idih>
0.000

> <Tether>
0.000

$$$$
VeraChem MOL file


 26 25  0  0  0  0  0  0  0  0999 V2000     
   20.1181   17.6878   25.2021 N   0  3  0  0  0  0  0  0  0  0  0  0
   19.2531   17.6551   25.7636 H   0  0  0  0  0  0  0  0  0  0  0  0
   20.4143   18.6754   25.2067 H   0  0  0  0  0  0  0  0  0  0  0  0
   19.8351   17.2390   23.7818 C   0  0  0  0  0  0  0  0  0  0  0  0
   19.5144   16.1949   23.8223 H   0  0  0  0  0  0  0  0  0  0  0  0
   20.7719   17.2838   23.2216 H   0  0  0  0  0  0  0  0  0  0  0  0
   18.7570   18.0781   23.0650 C   0  0  0  0  0  0  0  0  0  0  0  0
   18.5868   17.6532   22.0669 H   0  0  0  0  0  0  0  0  0  0  0  0
   17.8065   17.9773   23.6056 H   0  0  0  0  0  0  0  0  0  0  0  0
   19.1097   19.5810   22.9265 C   0  0  0  0  0  0  0  0  0  0  0  0
   19.1967   20.0386   23.9208 H   0  0  0  0  0  0  0  0  0  0  0  0
   18.2678   20.0831   22.4325 H   0  0  0  0  0  0  0  0  0  0  0  0
   20.4087   19.8313   22.1185 C   0  0  0  0  0  0  0  0  0  0  0  0
   21.2475   19.3100   22.5984 H   0  0  0  0  0  0  0  0  0  0  0  0
   20.3094   19.3971   21.1141 H   0  0  0  0  0  0  0  0  0  0  0  0
   20.7807   21.3293   21.9985 C   0  0  0  0  0  0  0  0  0  0  0  0
   21.7653   21.4095   21.5168 H   0  0  0  0  0  0  0  0  0  0  0  0
   20.8932   21.7664   23.0004 H   0  0  0  0  0  0  0  0  0  0  0  0
   19.7605   22.1553   21.1820 C   0  0  0  0  0  0  0  0  0  0  0  0
   18.7890   22.2125   21.6882 H   0  0  0  0  0  0  0  0  0  0  0  0
   19.6052   21.7192   20.1866 H   0  0  0  0  0  0  0  0  0  0  0  0
   20.1208   23.1830   21.0450 H   0  0  0  0  0  0  0  0  0  0  0  0
   21.1923   16.8046   25.8211 C   0  0  0  0  0  0  0  0  0  0  0  0
   21.3868   17.1393   26.8424 H   0  0  0  0  0  0  0  0  0  0  0  0
   20.8435   15.7696   25.8323 H   0  0  0  0  0  0  0  0  0  0  0  0
   22.1060   16.8808   25.2275 H   0  0  0  0  0  0  0  0  0  0  0  0
  1  2  1  0  0  0  0
  1  3  1  0  0  0  0
  1  4  1  0  0  0  0
  4  5  1  0  0  0  0
  4  6  1  0  0  0  0
  4  7  1  0  0  0  0
  7  8  1  0  0  0  0
  7  9  1  0  0  0  0
  7 10  1  0  0  0  0
 10 11  1  0  0  0  0
 10 12  1  0  0  0  0
 10 13  1  0  0  0  0
 13 14  1  0  0  0  0
 13 15  1  0  0  0  0
 13 16  1  0  0  0  0
 16 17  1  0  0  0  0
 16 18  1  0  0  0  0
 16 19  1  0  0  0  0
 19 20  1  0  0  0  0
 19 21  1  0  0  0  0
 19 22  1  0  0  0  0
  1 23  1  0  0  0  0
 23 24  1  0  0  0  0
 23 25  1  0  0  0  0
 23 26  1  0  0  0  0
M  END
> <VConfSearch Rank>
933

> <Conf_Id>
126

> <Delta U+W>
1.519

> <U+W>
23.361

> <U>
72.579

> <W>
-49.218

> <W(PB)>
-51.496

> <W(SA)>
2.279

> <Valence>
2.678

> <Coulomb>
69.622

> <VdW>
0.279

> <VdW6>
-7.328

> <VdW12>
7.608

> <Bond>
0.212

> <Angle>
0.911

> <Pdih>
1.555

> <Idih>
0.000

> <Tether>
0.000

$$$$
VeraChem MOL file


 26 25  0  0  0  0  0  0  0  0999 V2000     
   18.0047   18.5253   22.1933 N   0  3  0  0  0  0  0  0  0  0  0  0
   18.7256   19.1263   21.7666 H   0  0  0  0  0  0  0  0  0  0  0  0
   17.2069   19.1484   22.3929 H   0  0  0  0  0  0  0  0  0  0  0  0
   18.5299   17.9219   23.4812 C   0  0  0  0  0  0  0  0  0  0  0  0
   19.3684   17.2684   23.2294 H   0  0  0  0  0  0  0  0  0  0  0  0
   17.7346   17.3040   23.9058 H   0  0  0  0  0  0  0  0  0  0  0  0
   18.9773   18.9676   24.5237 C   0  0  0  0  0  0  0  0  0  0  0  0
   18.1121   19.5796   24.8112 H   0  0  0  0  0  0  0  0  0  0  0  0
   19.2955   18.4425   25.4341 H   0  0  0  0  0  0  0  0  0  0  0  0
   20.1223   19.8946   24.0426 C   0  0  0  0  0  0  0  0  0  0  0  0
   20.3384   20.6118   24.8451 H   0  0  0  0  0  0  0  0  0  0  0  0
   19.7861   20.4904   23.1837 H   0  0  0  0  0  0  0  0  0  0  0  0
   21.4163   19.1253   23.6729 C   0  0  0  0  0  0  0  0  0  0  0  0
   21.7672   18.5518   24.5419 H   0  0  0  0  0  0  0  0  0  0  0  0
   21.1966   18.3909   22.8868 H   0  0  0  0  0  0  0  0  0  0  0  0
   22.5556   20.0432   23.1666 C   0  0  0  0  0  0  0  0  0  0  0  0
   22.2145   20.6107   22.2895 H   0  0  0  0  0  0  0  0  0  0  0  0
   23.3867   19.4133   22.8197 H   0  0  0  0  0  0  0  0  0  0  0  0
   23.0874   21.0177   24.2423 C   0  0  0  0  0  0  0  0  0  0  0  0
   23.4044   20.4769   25.1434 H   0  0  0  0  0  0  0  0  0  0  0  0
   22.3277   21.7540   24.5319 H   0  0  0  0  0  0  0  0  0  0  0  0
   23.9548   21.5727   23.8621 H   0  0  0  0  0  0  0  0  0  0  0  0
   17.5932   17.4191   21.2320 C   0  0  0  0  0  0  0  0  0  0  0  0
   18.4608   16.7932   21.0121 H   0  0  0  0  0  0  0  0  0  0  0  0
   16.8089   16.8155   21.6939 H   0  0  0  0  0  0  0  0  0  0  0  0
   17.2182   17.8675   20.3092 H   0  0  0  0  0  0  0  0  0  0  0  0
  1  2  1  0  0  0  0
  1  3  1  0  0  0  0
  1  4  1  0  0  0  0
  4  5  1  0  0  0  0
  4  6  1  0  0  0  0
  4  7  1  0  0  0  0
  7  8  1  0  0  0  0
  7  9  1  0  0  0  0
  7 10  1  0  0  0  0
 10 11  1  0  0  0  0
 10 12  1  0  0  0  0
 10 13  1  0  0  0  0
 13 14  1  0  0  0  0
 13 15  1  0  0  0  0
 13 16  1  0  0  0  0
 16 17  1  0  0  0  0
 16 18  1  0  0  0  0
 16 19  1  0  0  0  0
 19 20  1  0  0  0  0
 19 21  1  0  0  0  0
 19 22  1  0  0  0  0
  1 23  1  0  0  0  0
 23 24  1  0  0  0  0
 23 25  1  0  0  0  0
 23 26  1  0  0  0  0
M  END
> <VConfSearch Rank>
934

> <Conf_Id>
134

> <Delta U+W>
1.464

> <U+W>
23.306

> <U>
72.579

> <W>
-49.273

> <W(PB)>
-51.540

> <W(SA)>
2.267

> <Valence>
2.677

> <Coulomb>
69.622

> <VdW>
0.280

> <VdW6>
-7.328

> <VdW12>
7.608

> <Bond>
0.212

> <Angle>
0.911

> <Pdih>
1.555

> <Idih>
0.000

> <Tether>
0.000

$$$$
VeraChem MOL file


 26 25  0  0  0  0  0  0  0  0999 V2000     
   20.8695   21.4019   21.9524 N   0  3  0  0  0  0  0  0  0  0  0  0
   19.9208   21.3714   21.5478 H   0  0  0  0  0  0  0  0  0  0  0  0
   21.4902   21.0101   21.2270 H   0  0  0  0  0  0  0  0  0  0  0  0
   20.9309   20.5536   23.2068 C   0  0  0  0  0  0  0  0  0  0  0  0
   20.2564   20.9961   23.9441 H   0  0  0  0  0  0  0  0  0  0  0  0
   21.9503   20.6061   23.5973 H   0  0  0  0  0  0  0  0  0  0  0  0
   20.5431   19.0832   22.9671 C   0  0  0  0  0  0  0  0  0  0  0  0
   19.5256   19.0441   22.5581 H   0  0  0  0  0  0  0  0  0  0  0  0
   21.2129   18.6468   22.2142 H   0  0  0  0  0  0  0  0  0  0  0  0
   20.6220   18.2598   24.2741 C   0  0  0  0  0  0  0  0  0  0  0  0
   19.9238   18.6713   25.0151 H   0  0  0  0  0  0  0  0  0  0  0  0
   21.6248   18.3756   24.7085 H   0  0  0  0  0  0  0  0  0  0  0  0
   20.3493   16.7466   24.0723 C   0  0  0  0  0  0  0  0  0  0  0  0
   21.1254   16.3279   23.4168 H   0  0  0  0  0  0  0  0  0  0  0  0
   20.4655   16.2359   25.0382 H   0  0  0  0  0  0  0  0  0  0  0  0
   18.9579   16.3963   23.4852 C   0  0  0  0  0  0  0  0  0  0  0  0
   18.8844   15.3040   23.3890 H   0  0  0  0  0  0  0  0  0  0  0  0
   18.8648   16.7933   22.4655 H   0  0  0  0  0  0  0  0  0  0  0  0
   17.7804   16.8994   24.3508 C   0  0  0  0  0  0  0  0  0  0  0  0
   17.8622   16.5303   25.3813 H   0  0  0  0  0  0  0  0  0  0  0  0
   16.8247   16.5463   23.9426 H   0  0  0  0  0  0  0  0  0  0  0  0
   17.7419   17.9955   24.3799 H   0  0  0  0  0  0  0  0  0  0  0  0
   21.2660   22.8356   22.2767 C   0  0  0  0  0  0  0  0  0  0  0  0
   22.2842   22.8461   22.6717 H   0  0  0  0  0  0  0  0  0  0  0  0
   21.2177   23.4355   21.3651 H   0  0  0  0  0  0  0  0  0  0  0  0
   20.5760   23.2394   23.0209 H   0  0  0  0  0  0  0  0  0  0  0  0
  1  2  1  0  0  0  0
  1  3  1  0  0  0  0
  1  4  1  0  0  0  0
  4  5  1  0  0  0  0
  4  6  1  0  0  0  0
  4  7  1  0  0  0  0
  7  8  1  0  0  0  0
  7  9  1  0  0  0  0
  7 10  1  0  0  0  0
 10 11  1  0  0  0  0
 10 12  1  0  0  0  0
 10 13  1  0  0  0  0
 13 14  1  0  0  0  0
 13 15  1  0  0  0  0
 13 16  1  0  0  0  0
 16 17  1  0  0  0  0
 16 18  1  0  0  0  0
 16 19  1  0  0  0  0
 19 20  1  0  0  0  0
 19 21  1  0  0  0  0
 19 22  1  0  0  0  0
  1 23  1  0  0  0  0
 23 24  1  0  0  0  0
 23 25  1  0  0  0  0
 23 26  1  0  0  0  0
M  END
> <VConfSearch Rank>
935

> <Conf_Id>
30

> <Delta U+W>
0.910

> <U+W>
22.752

> <U>
71.870

> <W>
-49.118

> <W(PB)>
-51.409

> <W(SA)>
2.290

> <Valence>
2.682

> <Coulomb>
68.933

> <VdW>
0.255

> <VdW6>
-6.833

> <VdW12>
7.088

> <Bond>
0.205

> <Angle>
1.003

> <Pdih>
1.473

> <Idih>
0.000

> <Tether>
0.000

$$$$
VeraChem MOL file


 26 25  0  0  0  0  0  0  0  0999 V2000     
   20.4771   16.3767   23.8999 N   0  3  0  0  0  0  0  0  0  0  0  0
   19.5804   16.0977   24.3276 H   0  0  0  0  0  0  0  0  0  0  0  0
   21.0528   16.7347   24.6777 H   0  0  0  0  0  0  0  0  0  0  0  0
   20.2493   17.4672   22.8725 C   0  0  0  0  0  0  0  0  0  0  0  0
   19.6309   17.0509   22.0732 H   0  0  0  0  0  0  0  0  0  0  0  0
   21.2203   17.7387   22.4507 H   0  0  0  0  0  0  0  0  0  0  0  0
   19.5693   18.7197   23.4544 C   0  0  0  0  0  0  0  0  0  0  0  0
   18.6014   18.4403   23.8912 H   0  0  0  0  0  0  0  0  0  0  0  0
   20.1896   19.1179   24.2673 H   0  0  0  0  0  0  0  0  0  0  0  0
   19.3580   19.8014   22.3692 C   0  0  0  0  0  0  0  0  0  0  0  0
   18.8026   19.3604   21.5297 H   0  0  0  0  0  0  0  0  0  0  0  0
   20.3286   20.1103   21.9586 H   0  0  0  0  0  0  0  0  0  0  0  0
   18.5765   21.0425   22.8731 C   0  0  0  0  0  0  0  0  0  0  0  0
   18.4376   21.7363   22.0325 H   0  0  0  0  0  0  0  0  0  0  0  0
   17.5669   20.7309   23.1746 H   0  0  0  0  0  0  0  0  0  0  0  0
   19.2350   21.8075   24.0498 C   0  0  0  0  0  0  0  0  0  0  0  0
   19.2726   21.1706   24.9436 H   0  0  0  0  0  0  0  0  0  0  0  0
   18.5929   22.6589   24.3158 H   0  0  0  0  0  0  0  0  0  0  0  0
   20.6509   22.3353   23.7250 C   0  0  0  0  0  0  0  0  0  0  0  0
   21.3604   21.5135   23.5671 H   0  0  0  0  0  0  0  0  0  0  0  0
   21.0328   22.9464   24.5530 H   0  0  0  0  0  0  0  0  0  0  0  0
   20.6418   22.9604   22.8228 H   0  0  0  0  0  0  0  0  0  0  0  0
   21.1511   15.1795   23.2438 C   0  0  0  0  0  0  0  0  0  0  0  0
   21.3091   14.4017   23.9942 H   0  0  0  0  0  0  0  0  0  0  0  0
   20.5090   14.7981   22.4468 H   0  0  0  0  0  0  0  0  0  0  0  0
   22.1116   15.4915   22.8279 H   0  0  0  0  0  0  0  0  0  0  0  0
  1  2  1  0  0  0  0
  1  3  1  0  0  0  0
  1  4  1  0  0  0  0
  4  5  1  0  0  0  0
  4  6  1  0  0  0  0
  4  7  1  0  0  0  0
  7  8  1  0  0  0  0
  7  9  1  0  0  0  0
  7 10  1  0  0  0  0
 10 11  1  0  0  0  0
 10 12  1  0  0  0  0
 10 13  1  0  0  0  0
 13 14  1  0  0  0  0
 13 15  1  0  0  0  0
 13 16  1  0  0  0  0
 16 17  1  0  0  0  0
 16 18  1  0  0  0  0
 16 19  1  0  0  0  0
 19 20  1  0  0  0  0
 19 21  1  0  0  0  0
 19 22  1  0  0  0  0
  1 23  1  0  0  0  0
 23 24  1  0  0  0  0
 23 25  1  0  0  0  0
 23 26  1  0  0  0  0
M  END
> <VConfSearch Rank>
936

> <Conf_Id>
29

> <Delta U+W>
0.886

> <U+W>
22.729

> <U>
71.870

> <W>
-49.141

> <W(PB)>
-51.404

> <W(SA)>
2.262

> <Valence>
2.682

> <Coulomb>
68.933

> <VdW>
0.255

> <VdW6>
-6.833

> <VdW12>
7.088

> <Bond>
0.205

> <Angle>
1.003

> <Pdih>
1.473

> <Idih>
0.000

> <Tether>
0.000

$$$$
VeraChem MOL file


 26 25  0  0  0  0  0  0  0  0999 V2000     
   19.5391   18.1038   20.8936 N   0  3  0  0  0  0  0  0  0  0  0  0
   18.6099   18.3029   20.4915 H   0  0  0  0  0  0  0  0  0  0  0  0
   19.4436   17.1924   21.3678 H   0  0  0  0  0  0  0  0  0  0  0  0
   19.9167   19.1774   21.8941 C   0  0  0  0  0  0  0  0  0  0  0  0
   19.9950   20.1254   21.3561 H   0  0  0  0  0  0  0  0  0  0  0  0
   20.9012   18.9268   22.2962 H   0  0  0  0  0  0  0  0  0  0  0  0
   18.9053   19.3182   23.0476 C   0  0  0  0  0  0  0  0  0  0  0  0
   17.9127   19.5346   22.6311 H   0  0  0  0  0  0  0  0  0  0  0  0
   18.8148   18.3624   23.5792 H   0  0  0  0  0  0  0  0  0  0  0  0
   19.2866   20.4431   24.0419 C   0  0  0  0  0  0  0  0  0  0  0  0
   18.5199   20.5044   24.8258 H   0  0  0  0  0  0  0  0  0  0  0  0
   19.2504   21.4078   23.5171 H   0  0  0  0  0  0  0  0  0  0  0  0
   20.6864   20.2879   24.6957 C   0  0  0  0  0  0  0  0  0  0  0  0
   21.4626   20.3956   23.9262 H   0  0  0  0  0  0  0  0  0  0  0  0
   20.8431   21.1242   25.3909 H   0  0  0  0  0  0  0  0  0  0  0  0
   20.9154   18.9566   25.4558 C   0  0  0  0  0  0  0  0  0  0  0  0
   21.9367   18.9564   25.8617 H   0  0  0  0  0  0  0  0  0  0  0  0
   20.8691   18.1085   24.7595 H   0  0  0  0  0  0  0  0  0  0  0  0
   19.9192   18.7340   26.6164 C   0  0  0  0  0  0  0  0  0  0  0  0
   20.1754   17.8240   27.1741 H   0  0  0  0  0  0  0  0  0  0  0  0
   18.8921   18.6180   26.2488 H   0  0  0  0  0  0  0  0  0  0  0  0
   19.9393   19.5760   27.3204 H   0  0  0  0  0  0  0  0  0  0  0  0
   20.5908   18.0267   19.7955 C   0  0  0  0  0  0  0  0  0  0  0  0
   20.3069   17.2503   19.0816 H   0  0  0  0  0  0  0  0  0  0  0  0
   20.6503   18.9915   19.2870 H   0  0  0  0  0  0  0  0  0  0  0  0
   21.5578   17.7826   20.2408 H   0  0  0  0  0  0  0  0  0  0  0  0
  1  2  1  0  0  0  0
  1  3  1  0  0  0  0
  1  4  1  0  0  0  0
  4  5  1  0  0  0  0
  4  6  1  0  0  0  0
  4  7  1  0  0  0  0
  7  8  1  0  0  0  0
  7  9  1  0  0  0  0
  7 10  1  0  0  0  0
 10 11  1  0  0  0  0
 10 12  1  0  0  0  0
 10 13  1  0  0  0  0
 13 14  1  0  0  0  0
 13 15  1  0  0  0  0
 13 16  1  0  0  0  0
 16 17  1  0  0  0  0
 16 18  1  0  0  0  0
 16 19  1  0  0  0  0
 19 20  1  0  0  0  0
 19 21  1  0  0  0  0
 19 22  1  0  0  0  0
  1 23  1  0  0  0  0
 23 24  1  0  0  0  0
 23 25  1  0  0  0  0
 23 26  1  0  0  0  0
M  END
> <VConfSearch Rank>
937

> <Conf_Id>
82

> <Delta U+W>
1.026

> <U+W>
22.868

> <U>
72.455

> <W>
-49.586

> <W(PB)>
-51.821

> <W(SA)>
2.234

> <Valence>
2.908

> <Coulomb>
69.435

> <VdW>
0.112

> <VdW6>
-7.765

> <VdW12>
7.877

> <Bond>
0.233

> <Angle>
1.170

> <Pdih>
1.506

> <Idih>
0.000

> <Tether>
0.000

$$$$
VeraChem MOL file


 26 25  0  0  0  0  0  0  0  0999 V2000     
   18.3129   20.9349   23.8765 N   0  3  0  0  0  0  0  0  0  0  0  0
   18.0472   20.3197   24.6611 H   0  0  0  0  0  0  0  0  0  0  0  0
   17.4847   20.9694   23.2619 H   0  0  0  0  0  0  0  0  0  0  0  0
   19.4942   20.3497   23.1293 C   0  0  0  0  0  0  0  0  0  0  0  0
   20.3447   20.3283   23.8149 H   0  0  0  0  0  0  0  0  0  0  0  0
   19.7348   21.0219   22.3020 H   0  0  0  0  0  0  0  0  0  0  0  0
   19.2300   18.9327   22.5856 C   0  0  0  0  0  0  0  0  0  0  0  0
   18.9735   18.2602   23.4141 H   0  0  0  0  0  0  0  0  0  0  0  0
   18.3523   18.9584   21.9263 H   0  0  0  0  0  0  0  0  0  0  0  0
   20.4335   18.3628   21.7943 C   0  0  0  0  0  0  0  0  0  0  0  0
   20.5951   18.9811   20.9004 H   0  0  0  0  0  0  0  0  0  0  0  0
   20.1759   17.3633   21.4195 H   0  0  0  0  0  0  0  0  0  0  0  0
   21.7631   18.2909   22.5930 C   0  0  0  0  0  0  0  0  0  0  0  0
   22.5379   17.8576   21.9455 H   0  0  0  0  0  0  0  0  0  0  0  0
   22.1067   19.3086   22.8223 H   0  0  0  0  0  0  0  0  0  0  0  0
   21.6985   17.4752   23.9095 C   0  0  0  0  0  0  0  0  0  0  0  0
   21.0066   17.9506   24.6176 H   0  0  0  0  0  0  0  0  0  0  0  0
   22.6868   17.5056   24.3891 H   0  0  0  0  0  0  0  0  0  0  0  0
   21.2945   15.9986   23.6966 C   0  0  0  0  0  0  0  0  0  0  0  0
   20.2680   15.9124   23.3191 H   0  0  0  0  0  0  0  0  0  0  0  0
   21.3460   15.4453   24.6432 H   0  0  0  0  0  0  0  0  0  0  0  0
   21.9660   15.5050   22.9823 H   0  0  0  0  0  0  0  0  0  0  0  0
   18.6598   22.3277   24.3839 C   0  0  0  0  0  0  0  0  0  0  0  0
   18.9050   22.9686   23.5342 H   0  0  0  0  0  0  0  0  0  0  0  0
   17.8009   22.7380   24.9196 H   0  0  0  0  0  0  0  0  0  0  0  0
   19.5172   22.2614   25.0572 H   0  0  0  0  0  0  0  0  0  0  0  0
  1  2  1  0  0  0  0
  1  3  1  0  0  0  0
  1  4  1  0  0  0  0
  4  5  1  0  0  0  0
  4  6  1  0  0  0  0
  4  7  1  0  0  0  0
  7  8  1  0  0  0  0
  7  9  1  0  0  0  0
  7 10  1  0  0  0  0
 10 11  1  0  0  0  0
 10 12  1  0  0  0  0
 10 13  1  0  0  0  0
 13 14  1  0  0  0  0
 13 15  1  0  0  0  0
 13 16  1  0  0  0  0
 16 17  1  0  0  0  0
 16 18  1  0  0  0  0
 16 19  1  0  0  0  0
 19 20  1  0  0  0  0
 19 21  1  0  0  0  0
 19 22  1  0  0  0  0
  1 23  1  0  0  0  0
 23 24  1  0  0  0  0
 23 25  1  0  0  0  0
 23 26  1  0  0  0  0
M  END
> <VConfSearch Rank>
938

> <Conf_Id>
71

> <Delta U+W>
1.096

> <U+W>
22.938

> <U>
72.455

> <W>
-49.517

> <W(PB)>
-51.795

> <W(SA)>
2.278

> <Valence>
2.908

> <Coulomb>
69.435

> <VdW>
0.112

> <VdW6>
-7.766

> <VdW12>
7.877

> <Bond>
0.233

> <Angle>
1.170

> <Pdih>
1.506

> <Idih>
0.000

> <Tether>
0.000

$$$$
VeraChem MOL file


 26 25  0  0  0  0  0  0  0  0999 V2000     
   20.3275   16.8373   22.4237 N   0  3  0  0  0  0  0  0  0  0  0  0
   19.4692   17.3890   22.2766 H   0  0  0  0  0  0  0  0  0  0  0  0
   20.0008   15.8918   22.6785 H   0  0  0  0  0  0  0  0  0  0  0  0
   21.1327   17.4258   23.5714 C   0  0  0  0  0  0  0  0  0  0  0  0
   22.0397   16.8262   23.6820 H   0  0  0  0  0  0  0  0  0  0  0  0
   20.5401   17.3053   24.4814 H   0  0  0  0  0  0  0  0  0  0  0  0
   21.5139   18.9150   23.4099 C   0  0  0  0  0  0  0  0  0  0  0  0
   22.0820   19.2292   24.2954 H   0  0  0  0  0  0  0  0  0  0  0  0
   22.1984   19.0245   22.5588 H   0  0  0  0  0  0  0  0  0  0  0  0
   20.3035   19.8631   23.2171 C   0  0  0  0  0  0  0  0  0  0  0  0
   19.7735   19.6073   22.2900 H   0  0  0  0  0  0  0  0  0  0  0  0
   20.6884   20.8815   23.0774 H   0  0  0  0  0  0  0  0  0  0  0  0
   19.3152   19.8419   24.4111 C   0  0  0  0  0  0  0  0  0  0  0  0
   18.9522   18.8183   24.5713 H   0  0  0  0  0  0  0  0  0  0  0  0
   19.8410   20.1303   25.3317 H   0  0  0  0  0  0  0  0  0  0  0  0
   18.0859   20.7613   24.2096 C   0  0  0  0  0  0  0  0  0  0  0  0
   17.3866   20.6007   25.0420 H   0  0  0  0  0  0  0  0  0  0  0  0
   17.5482   20.4691   23.2968 H   0  0  0  0  0  0  0  0  0  0  0  0
   18.4431   22.2639   24.1444 C   0  0  0  0  0  0  0  0  0  0  0  0
   19.0393   22.4995   23.2544 H   0  0  0  0  0  0  0  0  0  0  0  0
   19.0106   22.5740   25.0314 H   0  0  0  0  0  0  0  0  0  0  0  0
   17.5313   22.8735   24.1001 H   0  0  0  0  0  0  0  0  0  0  0  0
   21.1553   16.7738   21.1454 C   0  0  0  0  0  0  0  0  0  0  0  0
   20.5558   16.3192   20.3535 H   0  0  0  0  0  0  0  0  0  0  0  0
   21.4448   17.7850   20.8524 H   0  0  0  0  0  0  0  0  0  0  0  0
   22.0473   16.1700   21.3255 H   0  0  0  0  0  0  0  0  0  0  0  0
  1  2  1  0  0  0  0
  1  3  1  0  0  0  0
  1  4  1  0  0  0  0
  4  5  1  0  0  0  0
  4  6  1  0  0  0  0
  4  7  1  0  0  0  0
  7  8  1  0  0  0  0
  7  9  1  0  0  0  0
  7 10  1  0  0  0  0
 10 11  1  0  0  0  0
 10 12  1  0  0  0  0
 10 13  1  0  0  0  0
 13 14  1  0  0  0  0
 13 15  1  0  0  0  0
 13 16  1  0  0  0  0
 16 17  1  0  0  0  0
 16 18  1  0  0  0  0
 16 19  1  0  0  0  0
 19 20  1  0  0  0  0
 19 21  1  0  0  0  0
 19 22  1  0  0  0  0
  1 23  1  0  0  0  0
 23 24  1  0  0  0  0
 23 25  1  0  0  0  0
 23 26  1  0  0  0  0
M  END
> <VConfSearch Rank>
939

> <Conf_Id>
84

> <Delta U+W>
1.456

> <U+W>
23.298

> <U>
73.042

> <W>
-49.744

> <W(PB)>
-51.966

> <W(SA)>
2.222

> <Valence>
2.938

> <Coulomb>
69.625

> <VdW>
0.478

> <VdW6>
-8.182

> <VdW12>
8.660

> <Bond>
0.253

> <Angle>
1.038

> <Pdih>
1.647

> <Idih>
0.000

> <Tether>
0.000

$$$$
VeraChem MOL file


 26 25  0  0  0  0  0  0  0  0999 V2000     
   18.4336   17.3256   23.4107 N   0  3  0  0  0  0  0  0  0  0  0  0
   18.3551   18.2037   23.9455 H   0  0  0  0  0  0  0  0  0  0  0  0
   18.4960   16.5757   24.1167 H   0  0  0  0  0  0  0  0  0  0  0  0
   19.6889   17.3475   22.5608 C   0  0  0  0  0  0  0  0  0  0  0  0
   19.5839   18.1488   21.8256 H   0  0  0  0  0  0  0  0  0  0  0  0
   19.7408   16.3978   22.0223 H   0  0  0  0  0  0  0  0  0  0  0  0
   20.9870   17.5489   23.3700 C   0  0  0  0  0  0  0  0  0  0  0  0
   21.1091   16.7106   24.0686 H   0  0  0  0  0  0  0  0  0  0  0  0
   21.8411   17.4997   22.6816 H   0  0  0  0  0  0  0  0  0  0  0  0
   21.0410   18.8834   24.1558 C   0  0  0  0  0  0  0  0  0  0  0  0
   21.9918   18.9266   24.7048 H   0  0  0  0  0  0  0  0  0  0  0  0
   20.2496   18.9019   24.9170 H   0  0  0  0  0  0  0  0  0  0  0  0
   20.9229   20.1312   23.2475 C   0  0  0  0  0  0  0  0  0  0  0  0
   21.7016   20.0962   22.4730 H   0  0  0  0  0  0  0  0  0  0  0  0
   19.9562   20.1278   22.7266 H   0  0  0  0  0  0  0  0  0  0  0  0
   21.0582   21.4426   24.0532 C   0  0  0  0  0  0  0  0  0  0  0  0
   22.0274   21.4622   24.5710 H   0  0  0  0  0  0  0  0  0  0  0  0
   20.2827   21.4822   24.8310 H   0  0  0  0  0  0  0  0  0  0  0  0
   20.9375   22.6861   23.1466 C   0  0  0  0  0  0  0  0  0  0  0  0
   21.7216   22.6922   22.3782 H   0  0  0  0  0  0  0  0  0  0  0  0
   21.0368   23.6067   23.7361 H   0  0  0  0  0  0  0  0  0  0  0  0
   19.9634   22.7135   22.6410 H   0  0  0  0  0  0  0  0  0  0  0  0
   17.2111   17.1279   22.5256 C   0  0  0  0  0  0  0  0  0  0  0  0
   17.3032   16.1786   21.9932 H   0  0  0  0  0  0  0  0  0  0  0  0
   16.3149   17.1151   23.1499 H   0  0  0  0  0  0  0  0  0  0  0  0
   17.1499   17.9497   21.8088 H   0  0  0  0  0  0  0  0  0  0  0  0
  1  2  1  0  0  0  0
  1  3  1  0  0  0  0
  1  4  1  0  0  0  0
  4  5  1  0  0  0  0
  4  6  1  0  0  0  0
  4  7  1  0  0  0  0
  7  8  1  0  0  0  0
  7  9  1  0  0  0  0
  7 10  1  0  0  0  0
 10 11  1  0  0  0  0
 10 12  1  0  0  0  0
 10 13  1  0  0  0  0
 13 14  1  0  0  0  0
 13 15  1  0  0  0  0
 13 16  1  0  0  0  0
 16 17  1  0  0  0  0
 16 18  1  0  0  0  0
 16 19  1  0  0  0  0
 19 20  1  0  0  0  0
 19 21  1  0  0  0  0
 19 22  1  0  0  0  0
  1 23  1  0  0  0  0
 23 24  1  0  0  0  0
 23 25  1  0  0  0  0
 23 26  1  0  0  0  0
M  END
> <VConfSearch Rank>
940

> <Conf_Id>
73

> <Delta U+W>
0.884

> <U+W>
22.726

> <U>
71.905

> <W>
-49.179

> <W(PB)>
-51.494

> <W(SA)>
2.315

> <Valence>
2.125

> <Coulomb>
69.686

> <VdW>
0.093

> <VdW6>
-6.766

> <VdW12>
6.859

> <Bond>
0.169

> <Angle>
0.621

> <Pdih>
1.336

> <Idih>
0.000

> <Tether>
0.000

$$$$
VeraChem MOL file


 26 25  0  0  0  0  0  0  0  0999 V2000     
   19.1783   16.0281   22.6598 N   0  3  0  0  0  0  0  0  0  0  0  0
   19.2410   15.6996   23.6361 H   0  0  0  0  0  0  0  0  0  0  0  0
   20.0703   15.7529   22.2199 H   0  0  0  0  0  0  0  0  0  0  0  0
   19.0207   17.5350   22.6242 C   0  0  0  0  0  0  0  0  0  0  0  0
   18.0715   17.7842   23.1054 H   0  0  0  0  0  0  0  0  0  0  0  0
   18.9666   17.8417   21.5766 H   0  0  0  0  0  0  0  0  0  0  0  0
   20.1689   18.2839   23.3246 C   0  0  0  0  0  0  0  0  0  0  0  0
   20.2301   17.9606   24.3724 H   0  0  0  0  0  0  0  0  0  0  0  0
   21.1222   18.0179   22.8487 H   0  0  0  0  0  0  0  0  0  0  0  0
   19.9660   19.8142   23.2634 C   0  0  0  0  0  0  0  0  0  0  0  0
   19.0087   20.0758   23.7357 H   0  0  0  0  0  0  0  0  0  0  0  0
   19.8996   20.1330   22.2137 H   0  0  0  0  0  0  0  0  0  0  0  0
   21.1135   20.5771   23.9637 C   0  0  0  0  0  0  0  0  0  0  0  0
   21.1800   20.2585   25.0133 H   0  0  0  0  0  0  0  0  0  0  0  0
   22.0707   20.3157   23.4915 H   0  0  0  0  0  0  0  0  0  0  0  0
   20.9103   22.1075   23.9022 C   0  0  0  0  0  0  0  0  0  0  0  0
   19.9550   22.3744   24.3756 H   0  0  0  0  0  0  0  0  0  0  0  0
   20.8457   22.4316   22.8540 H   0  0  0  0  0  0  0  0  0  0  0  0
   22.0580   22.8659   24.6026 C   0  0  0  0  0  0  0  0  0  0  0  0
   21.8960   23.9502   24.5484 H   0  0  0  0  0  0  0  0  0  0  0  0
   23.0237   22.6458   24.1289 H   0  0  0  0  0  0  0  0  0  0  0  0
   22.1260   22.5882   25.6625 H   0  0  0  0  0  0  0  0  0  0  0  0
   18.0057   15.3674   21.9483 C   0  0  0  0  0  0  0  0  0  0  0  0
   17.9798   15.7043   20.9096 H   0  0  0  0  0  0  0  0  0  0  0  0
   18.1316   14.2829   21.9813 H   0  0  0  0  0  0  0  0  0  0  0  0
   17.0771   15.6463   22.4512 H   0  0  0  0  0  0  0  0  0  0  0  0
  1  2  1  0  0  0  0
  1  3  1  0  0  0  0
  1  4  1  0  0  0  0
  4  5  1  0  0  0  0
  4  6  1  0  0  0  0
  4  7  1  0  0  0  0
  7  8  1  0  0  0  0
  7  9  1  0  0  0  0
  7 10  1  0  0  0  0
 10 11  1  0  0  0  0
 10 12  1  0  0  0  0
 10 13  1  0  0  0  0
 13 14  1  0  0  0  0
 13 15  1  0  0  0  0
 13 16  1  0  0  0  0
 16 17  1  0  0  0  0
 16 18  1  0  0  0  0
 16 19  1  0  0  0  0
 19 20  1  0  0  0  0
 19 21  1  0  0  0  0
 19 22  1  0  0  0  0
  1 23  1  0  0  0  0
 23 24  1  0  0  0  0
 23 25  1  0  0  0  0
 23 26  1  0  0  0  0
M  END
> <VConfSearch Rank>
941

> <Conf_Id>
11

> <Delta U+W>
0.000

> <U+W>
21.842

> <U>
70.357

> <W>
-48.515

> <W(PB)>
-50.856

> <W(SA)>
2.341

> <Valence>
1.714

> <Coulomb>
68.480

> <VdW>
0.163

> <VdW6>
-5.268

> <VdW12>
5.431

> <Bond>
0.126

> <Angle>
0.350

> <Pdih>
1.238

> <Idih>
0.000

> <Tether>
0.000

$$$$
VeraChem MOL file


 26 25  0  0  0  0  0  0  0  0999 V2000     
   20.1040   21.3334   25.7543 N   0  3  0  0  0  0  0  0  0  0  0  0
   19.7874   22.3008   25.9271 H   0  0  0  0  0  0  0  0  0  0  0  0
   21.1343   21.3837   25.7713 H   0  0  0  0  0  0  0  0  0  0  0  0
   19.6226   20.8778   24.3869 C   0  0  0  0  0  0  0  0  0  0  0  0
   19.8829   21.6633   23.6729 H   0  0  0  0  0  0  0  0  0  0  0  0
   18.5331   20.7995   24.4224 H   0  0  0  0  0  0  0  0  0  0  0  0
   20.2290   19.5435   23.9065 C   0  0  0  0  0  0  0  0  0  0  0  0
   21.3246   19.6152   23.9216 H   0  0  0  0  0  0  0  0  0  0  0  0
   19.9493   18.7383   24.5980 H   0  0  0  0  0  0  0  0  0  0  0  0
   19.7506   19.1878   22.4814 C   0  0  0  0  0  0  0  0  0  0  0  0
   20.0289   19.9950   21.7895 H   0  0  0  0  0  0  0  0  0  0  0  0
   18.6535   19.1234   22.4692 H   0  0  0  0  0  0  0  0  0  0  0  0
   20.3524   17.8527   21.9869 C   0  0  0  0  0  0  0  0  0  0  0  0
   21.4494   17.9169   21.9993 H   0  0  0  0  0  0  0  0  0  0  0  0
   20.0740   17.0454   22.6785 H   0  0  0  0  0  0  0  0  0  0  0  0
   19.8737   17.4972   20.5616 C   0  0  0  0  0  0  0  0  0  0  0  0
   20.1522   18.3008   19.8653 H   0  0  0  0  0  0  0  0  0  0  0  0
   18.7769   17.4294   20.5444 H   0  0  0  0  0  0  0  0  0  0  0  0
   20.4767   16.1634   20.0712 C   0  0  0  0  0  0  0  0  0  0  0  0
   20.1253   15.9283   19.0582 H   0  0  0  0  0  0  0  0  0  0  0  0
   20.1870   15.3336   20.7290 H   0  0  0  0  0  0  0  0  0  0  0  0
   21.5731   16.2118   20.0445 H   0  0  0  0  0  0  0  0  0  0  0  0
   19.5873   20.4154   26.8565 C   0  0  0  0  0  0  0  0  0  0  0  0
   19.9799   19.4083   26.7023 H   0  0  0  0  0  0  0  0  0  0  0  0
   19.9223   20.7955   27.8241 H   0  0  0  0  0  0  0  0  0  0  0  0
   18.4958   20.3968   26.8256 H   0  0  0  0  0  0  0  0  0  0  0  0
  1  2  1  0  0  0  0
  1  3  1  0  0  0  0
  1  4  1  0  0  0  0
  4  5  1  0  0  0  0
  4  6  1  0  0  0  0
  4  7  1  0  0  0  0
  7  8  1  0  0  0  0
  7  9  1  0  0  0  0
  7 10  1  0  0  0  0
 10 11  1  0  0  0  0
 10 12  1  0  0  0  0
 10 13  1  0  0  0  0
 13 14  1  0  0  0  0
 13 15  1  0  0  0  0
 13 16  1  0  0  0  0
 16 17  1  0  0  0  0
 16 18  1  0  0  0  0
 16 19  1  0  0  0  0
 19 20  1  0  0  0  0
 19 21  1  0  0  0  0
 19 22  1  0  0  0  0
  1 23  1  0  0  0  0
 23 24  1  0  0  0  0
 23 25  1  0  0  0  0
 23 26  1  0  0  0  0
M  END
> <VConfSearch Rank>
942

> <Conf_Id>
102

> <Delta U+W>
0.121

> <U+W>
21.963

> <U>
70.745

> <W>
-48.782

> <W(PB)>
-51.111

> <W(SA)>
2.329

> <Valence>
1.993

> <Coulomb>
68.323

> <VdW>
0.429

> <VdW6>
-5.973

> <VdW12>
6.402

> <Bond>
0.161

> <Angle>
0.472

> <Pdih>
1.360

> <Idih>
0.000

> <Tether>
0.000

$$$$
VeraChem MOL file


 26 25  0  0  0  0  0  0  0  0999 V2000     
   18.8124   20.2891   26.1392 N   0  3  0  0  0  0  0  0  0  0  0  0
   18.2064   20.9757   25.6639 H   0  0  0  0  0  0  0  0  0  0  0  0
   19.1434   20.7707   26.9904 H   0  0  0  0  0  0  0  0  0  0  0  0
   20.0005   19.9388   25.2589 C   0  0  0  0  0  0  0  0  0  0  0  0
   20.5938   19.1829   25.7795 H   0  0  0  0  0  0  0  0  0  0  0  0
   20.6101   20.8409   25.1625 H   0  0  0  0  0  0  0  0  0  0  0  0
   19.6269   19.4339   23.8503 C   0  0  0  0  0  0  0  0  0  0  0  0
   19.0402   18.5097   23.9307 H   0  0  0  0  0  0  0  0  0  0  0  0
   18.9899   20.1779   23.3540 H   0  0  0  0  0  0  0  0  0  0  0  0
   20.8854   19.1721   22.9935 C   0  0  0  0  0  0  0  0  0  0  0  0
   21.5232   18.4320   23.4968 H   0  0  0  0  0  0  0  0  0  0  0  0
   21.4737   20.0969   22.9146 H   0  0  0  0  0  0  0  0  0  0  0  0
   20.5248   18.6664   21.5779 C   0  0  0  0  0  0  0  0  0  0  0  0
   19.9368   17.7414   21.6566 H   0  0  0  0  0  0  0  0  0  0  0  0
   19.8868   19.4062   21.0747 H   0  0  0  0  0  0  0  0  0  0  0  0
   21.7836   18.4047   20.7212 C   0  0  0  0  0  0  0  0  0  0  0  0
   22.4242   17.6635   21.2193 H   0  0  0  0  0  0  0  0  0  0  0  0
   22.3741   19.3280   20.6372 H   0  0  0  0  0  0  0  0  0  0  0  0
   21.4197   17.8998   19.3086 C   0  0  0  0  0  0  0  0  0  0  0  0
   20.8576   16.9581   19.3584 H   0  0  0  0  0  0  0  0  0  0  0  0
   22.3259   17.7199   18.7157 H   0  0  0  0  0  0  0  0  0  0  0  0
   20.8069   18.6356   18.7718 H   0  0  0  0  0  0  0  0  0  0  0  0
   18.0228   19.0430   26.5238 C   0  0  0  0  0  0  0  0  0  0  0  0
   18.6844   18.3443   27.0404 H   0  0  0  0  0  0  0  0  0  0  0  0
   17.2018   19.3303   27.1845 H   0  0  0  0  0  0  0  0  0  0  0  0
   17.6216   18.5761   25.6220 H   0  0  0  0  0  0  0  0  0  0  0  0
  1  2  1  0  0  0  0
  1  3  1  0  0  0  0
  1  4  1  0  0  0  0
  4  5  1  0  0  0  0
  4  6  1  0  0  0  0
  4  7  1  0  0  0  0
  7  8  1  0  0  0  0
  7  9  1  0  0  0  0
  7 10  1  0  0  0  0
 10 11  1  0  0  0  0
 10 12  1  0  0  0  0
 10 13  1  0  0  0  0
 13 14  1  0  0  0  0
 13 15  1  0  0  0  0
 13 16  1  0  0  0  0
 16 17  1  0  0  0  0
 16 18  1  0  0  0  0
 16 19  1  0  0  0  0
 19 20  1  0  0  0  0
 19 21  1  0  0  0  0
 19 22  1  0  0  0  0
  1 23  1  0  0  0  0
 23 24  1  0  0  0  0
 23 25  1  0  0  0  0
 23 26  1  0  0  0  0
M  END
> <VConfSearch Rank>
943

> <Conf_Id>
37

> <Delta U+W>
0.125

> <U+W>
21.967

> <U>
70.745

> <W>
-48.778

> <W(PB)>
-51.115

> <W(SA)>
2.337

> <Valence>
1.993

> <Coulomb>
68.323

> <VdW>
0.429

> <VdW6>
-5.973

> <VdW12>
6.403

> <Bond>
0.161

> <Angle>
0.472

> <Pdih>
1.360

> <Idih>
0.000

> <Tether>
0.000

$$$$
VeraChem MOL file


 26 25  0  0  0  0  0  0  0  0999 V2000     
   21.0547   16.9145   25.1413 N   0  3  0  0  0  0  0  0  0  0  0  0
   21.4623   17.3256   25.9955 H   0  0  0  0  0  0  0  0  0  0  0  0
   21.8601   16.6287   24.5629 H   0  0  0  0  0  0  0  0  0  0  0  0
   20.2249   17.9488   24.4077 C   0  0  0  0  0  0  0  0  0  0  0  0
   19.3918   18.2315   25.0560 H   0  0  0  0  0  0  0  0  0  0  0  0
   19.8189   17.4741   23.5114 H   0  0  0  0  0  0  0  0  0  0  0  0
   21.0262   19.2055   24.0161 C   0  0  0  0  0  0  0  0  0  0  0  0
   21.4671   19.6447   24.9208 H   0  0  0  0  0  0  0  0  0  0  0  0
   21.8634   18.9222   23.3642 H   0  0  0  0  0  0  0  0  0  0  0  0
   20.1581   20.2753   23.3121 C   0  0  0  0  0  0  0  0  0  0  0  0
   20.7707   21.1749   23.1694 H   0  0  0  0  0  0  0  0  0  0  0  0
   19.3279   20.5651   23.9711 H   0  0  0  0  0  0  0  0  0  0  0  0
   19.6008   19.8032   21.9447 C   0  0  0  0  0  0  0  0  0  0  0  0
   20.4322   19.5330   21.2791 H   0  0  0  0  0  0  0  0  0  0  0  0
   19.0082   18.8897   22.0850 H   0  0  0  0  0  0  0  0  0  0  0  0
   18.7040   20.8556   21.2484 C   0  0  0  0  0  0  0  0  0  0  0  0
   17.8639   21.1215   21.9052 H   0  0  0  0  0  0  0  0  0  0  0  0
   18.2600   20.4012   20.3515 H   0  0  0  0  0  0  0  0  0  0  0  0
   19.4640   22.1356   20.8315 C   0  0  0  0  0  0  0  0  0  0  0  0
   19.8205   22.6964   21.7042 H   0  0  0  0  0  0  0  0  0  0  0  0
   18.8070   22.8025   20.2583 H   0  0  0  0  0  0  0  0  0  0  0  0
   20.3289   21.8938   20.2003 H   0  0  0  0  0  0  0  0  0  0  0  0
   20.1917   15.7092   25.4880 C   0  0  0  0  0  0  0  0  0  0  0  0
   19.7991   15.2717   24.5674 H   0  0  0  0  0  0  0  0  0  0  0  0
   20.8011   14.9723   26.0159 H   0  0  0  0  0  0  0  0  0  0  0  0
   19.3659   16.0305   26.1266 H   0  0  0  0  0  0  0  0  0  0  0  0
  1  2  1  0  0  0  0
  1  3  1  0  0  0  0
  1  4  1  0  0  0  0
  4  5  1  0  0  0  0
  4  6  1  0  0  0  0
  4  7  1  0  0  0  0
  7  8  1  0  0  0  0
  7  9  1  0  0  0  0
  7 10  1  0  0  0  0
 10 11  1  0  0  0  0
 10 12  1  0  0  0  0
 10 13  1  0  0  0  0
 13 14  1  0  0  0  0
 13 15  1  0  0  0  0
 13 16  1  0  0  0  0
 16 17  1  0  0  0  0
 16 18  1  0  0  0  0
 16 19  1  0  0  0  0
 19 20  1  0  0  0  0
 19 21  1  0  0  0  0
 19 22  1  0  0  0  0
  1 23  1  0  0  0  0
 23 24  1  0  0  0  0
 23 25  1  0  0  0  0
 23 26  1  0  0  0  0
M  END
> <VConfSearch Rank>
944

> <Conf_Id>
137

> <Delta U+W>
1.038

> <U+W>
22.880

> <U>
71.810

> <W>
-48.930

> <W(PB)>
-51.257

> <W(SA)>
2.327

> <Valence>
2.568

> <Coulomb>
68.877

> <VdW>
0.364

> <VdW6>
-6.470

> <VdW12>
6.834

> <Bond>
0.191

> <Angle>
0.752

> <Pdih>
1.626

> <Idih>
0.000

> <Tether>
0.000

$$$$
VeraChem MOL file


 26 25  0  0  0  0  0  0  0  0999 V2000     
   22.3572   20.0178   21.6365 N   0  3  0  0  0  0  0  0  0  0  0  0
   21.9584   19.4617   20.8642 H   0  0  0  0  0  0  0  0  0  0  0  0
   23.0590   19.4060   22.0815 H   0  0  0  0  0  0  0  0  0  0  0  0
   21.2744   20.3821   22.6324 C   0  0  0  0  0  0  0  0  0  0  0  0
   20.5500   21.0211   22.1212 H   0  0  0  0  0  0  0  0  0  0  0  0
   21.7384   20.9611   23.4349 H   0  0  0  0  0  0  0  0  0  0  0  0
   20.5559   19.1569   23.2263 C   0  0  0  0  0  0  0  0  0  0  0  0
   20.1108   18.5740   22.4102 H   0  0  0  0  0  0  0  0  0  0  0  0
   21.2900   18.5099   23.7247 H   0  0  0  0  0  0  0  0  0  0  0  0
   19.4637   19.5802   24.2368 C   0  0  0  0  0  0  0  0  0  0  0  0
   18.7025   20.1873   23.7272 H   0  0  0  0  0  0  0  0  0  0  0  0
   19.9159   20.2302   24.9989 H   0  0  0  0  0  0  0  0  0  0  0  0
   18.7829   18.3866   24.9511 C   0  0  0  0  0  0  0  0  0  0  0  0
   19.5417   17.7894   25.4755 H   0  0  0  0  0  0  0  0  0  0  0  0
   18.1126   18.7818   25.7270 H   0  0  0  0  0  0  0  0  0  0  0  0
   17.9689   17.4771   24.0001 C   0  0  0  0  0  0  0  0  0  0  0  0
   18.6332   17.0076   23.2626 H   0  0  0  0  0  0  0  0  0  0  0  0
   17.2446   18.0823   23.4371 H   0  0  0  0  0  0  0  0  0  0  0  0
   17.2192   16.3711   24.7732 C   0  0  0  0  0  0  0  0  0  0  0  0
   17.9200   15.7297   25.3234 H   0  0  0  0  0  0  0  0  0  0  0  0
   16.6499   15.7340   24.0839 H   0  0  0  0  0  0  0  0  0  0  0  0
   16.5123   16.8022   25.4941 H   0  0  0  0  0  0  0  0  0  0  0  0
   23.0144   21.2820   21.1002 C   0  0  0  0  0  0  0  0  0  0  0  0
   23.4575   21.8364   21.9304 H   0  0  0  0  0  0  0  0  0  0  0  0
   23.7919   21.0057   20.3845 H   0  0  0  0  0  0  0  0  0  0  0  0
   22.2594   21.8971   20.6055 H   0  0  0  0  0  0  0  0  0  0  0  0
  1  2  1  0  0  0  0
  1  3  1  0  0  0  0
  1  4  1  0  0  0  0
  4  5  1  0  0  0  0
  4  6  1  0  0  0  0
  4  7  1  0  0  0  0
  7  8  1  0  0  0  0
  7  9  1  0  0  0  0
  7 10  1  0  0  0  0
 10 11  1  0  0  0  0
 10 12  1  0  0  0  0
 10 13  1  0  0  0  0
 13 14  1  0  0  0  0
 13 15  1  0  0  0  0
 13 16  1  0  0  0  0
 16 17  1  0  0  0  0
 16 18  1  0  0  0  0
 16 19  1  0  0  0  0
 19 20  1  0  0  0  0
 19 21  1  0  0  0  0
 19 22  1  0  0  0  0
  1 23  1  0  0  0  0
 23 24  1  0  0  0  0
 23 25  1  0  0  0  0
 23 26  1  0  0  0  0
M  END
> <VConfSearch Rank>
945

> <Conf_Id>
35

> <Delta U+W>
0.670

> <U+W>
22.512

> <U>
71.348

> <W>
-48.837

> <W(PB)>
-51.150

> <W(SA)>
2.313

> <Valence>
2.262

> <Coulomb>
68.807

> <VdW>
0.280

> <VdW6>
-5.915

> <VdW12>
6.195

> <Bond>
0.164

> <Angle>
0.622

> <Pdih>
1.475

> <Idih>
0.000

> <Tether>
0.000

$$$$
VeraChem MOL file


 26 25  0  0  0  0  0  0  0  0999 V2000     
   19.3602   18.0933   20.5591 N   0  3  0  0  0  0  0  0  0  0  0  0
   18.8763   17.2391   20.8770 H   0  0  0  0  0  0  0  0  0  0  0  0
   20.3535   17.8289   20.4691 H   0  0  0  0  0  0  0  0  0  0  0  0
   19.2034   19.1962   21.5867 C   0  0  0  0  0  0  0  0  0  0  0  0
   18.1403   19.4400   21.6570 H   0  0  0  0  0  0  0  0  0  0  0  0
   19.7348   20.0769   21.2172 H   0  0  0  0  0  0  0  0  0  0  0  0
   19.7402   18.8134   22.9779 C   0  0  0  0  0  0  0  0  0  0  0  0
   19.2147   17.9188   23.3378 H   0  0  0  0  0  0  0  0  0  0  0  0
   20.8024   18.5528   22.8911 H   0  0  0  0  0  0  0  0  0  0  0  0
   19.5552   19.9687   23.9899 C   0  0  0  0  0  0  0  0  0  0  0  0
   18.4979   20.2682   23.9997 H   0  0  0  0  0  0  0  0  0  0  0  0
   20.1211   20.8491   23.6548 H   0  0  0  0  0  0  0  0  0  0  0  0
   19.9746   19.6011   25.4348 C   0  0  0  0  0  0  0  0  0  0  0  0
   19.7007   20.4328   26.0987 H   0  0  0  0  0  0  0  0  0  0  0  0
   19.3960   18.7317   25.7766 H   0  0  0  0  0  0  0  0  0  0  0  0
   21.4873   19.3139   25.5874 C   0  0  0  0  0  0  0  0  0  0  0  0
   22.0675   20.1620   25.1978 H   0  0  0  0  0  0  0  0  0  0  0  0
   21.7689   18.4351   24.9923 H   0  0  0  0  0  0  0  0  0  0  0  0
   21.8735   19.0644   27.0611 C   0  0  0  0  0  0  0  0  0  0  0  0
   21.6449   19.9394   27.6834 H   0  0  0  0  0  0  0  0  0  0  0  0
   22.9483   18.8595   27.1508 H   0  0  0  0  0  0  0  0  0  0  0  0
   21.3311   18.2023   27.4708 H   0  0  0  0  0  0  0  0  0  0  0  0
   18.8063   18.5527   19.2175 C   0  0  0  0  0  0  0  0  0  0  0  0
   19.3551   19.4370   18.8861 H   0  0  0  0  0  0  0  0  0  0  0  0
   18.9252   17.7495   18.4868 H   0  0  0  0  0  0  0  0  0  0  0  0
   17.7472   18.7950   19.3301 H   0  0  0  0  0  0  0  0  0  0  0  0
  1  2  1  0  0  0  0
  1  3  1  0  0  0  0
  1  4  1  0  0  0  0
  4  5  1  0  0  0  0
  4  6  1  0  0  0  0
  4  7  1  0  0  0  0
  7  8  1  0  0  0  0
  7  9  1  0  0  0  0
  7 10  1  0  0  0  0
 10 11  1  0  0  0  0
 10 12  1  0  0  0  0
 10 13  1  0  0  0  0
 13 14  1  0  0  0  0
 13 15  1  0  0  0  0
 13 16  1  0  0  0  0
 16 17  1  0  0  0  0
 16 18  1  0  0  0  0
 16 19  1  0  0  0  0
 19 20  1  0  0  0  0
 19 21  1  0  0  0  0
 19 22  1  0  0  0  0
  1 23  1  0  0  0  0
 23 24  1  0  0  0  0
 23 25  1  0  0  0  0
 23 26  1  0  0  0  0
M  END
> <VConfSearch Rank>
946

> <Conf_Id>
36

> <Delta U+W>
0.662

> <U+W>
22.504

> <U>
71.348

> <W>
-48.844

> <W(PB)>
-51.157

> <W(SA)>
2.313

> <Valence>
2.262

> <Coulomb>
68.807

> <VdW>
0.280

> <VdW6>
-5.916

> <VdW12>
6.195

> <Bond>
0.164

> <Angle>
0.622

> <Pdih>
1.475

> <Idih>
0.000

> <Tether>
0.000

$$$$
VeraChem MOL file


 26 25  0  0  0  0  0  0  0  0999 V2000     
   18.2459   16.9576   24.2671 N   0  3  0  0  0  0  0  0  0  0  0  0
   18.5327   16.2284   23.5957 H   0  0  0  0  0  0  0  0  0  0  0  0
   17.2397   17.1084   24.0953 H   0  0  0  0  0  0  0  0  0  0  0  0
   19.0176   18.2365   24.0115 C   0  0  0  0  0  0  0  0  0  0  0  0
   20.0740   18.0308   24.1995 H   0  0  0  0  0  0  0  0  0  0  0  0
   18.6777   18.9833   24.7335 H   0  0  0  0  0  0  0  0  0  0  0  0
   18.8385   18.7800   22.5808 C   0  0  0  0  0  0  0  0  0  0  0  0
   19.1783   18.0290   21.8553 H   0  0  0  0  0  0  0  0  0  0  0  0
   17.7692   18.9409   22.3893 H   0  0  0  0  0  0  0  0  0  0  0  0
   19.5957   20.1086   22.3471 C   0  0  0  0  0  0  0  0  0  0  0  0
   19.2340   20.8661   23.0564 H   0  0  0  0  0  0  0  0  0  0  0  0
   19.3505   20.4817   21.3430 H   0  0  0  0  0  0  0  0  0  0  0  0
   21.1315   19.9641   22.4753 C   0  0  0  0  0  0  0  0  0  0  0  0
   21.3948   19.6388   23.4907 H   0  0  0  0  0  0  0  0  0  0  0  0
   21.4855   19.1826   21.7888 H   0  0  0  0  0  0  0  0  0  0  0  0
   21.8608   21.2901   22.1639 C   0  0  0  0  0  0  0  0  0  0  0  0
   21.5099   22.0760   22.8474 H   0  0  0  0  0  0  0  0  0  0  0  0
   21.6114   21.6213   21.1460 H   0  0  0  0  0  0  0  0  0  0  0  0
   23.3922   21.1453   22.2937 C   0  0  0  0  0  0  0  0  0  0  0  0
   23.6761   20.8487   23.3118 H   0  0  0  0  0  0  0  0  0  0  0  0
   23.8920   22.0963   22.0684 H   0  0  0  0  0  0  0  0  0  0  0  0
   23.7778   20.3892   21.5974 H   0  0  0  0  0  0  0  0  0  0  0  0
   18.4792   16.4889   25.6967 C   0  0  0  0  0  0  0  0  0  0  0  0
   18.1381   17.2624   26.3884 H   0  0  0  0  0  0  0  0  0  0  0  0
   17.9179   15.5676   25.8677 H   0  0  0  0  0  0  0  0  0  0  0  0
   19.5455   16.3040   25.8447 H   0  0  0  0  0  0  0  0  0  0  0  0
  1  2  1  0  0  0  0
  1  3  1  0  0  0  0
  1  4  1  0  0  0  0
  4  5  1  0  0  0  0
  4  6  1  0  0  0  0
  4  7  1  0  0  0  0
  7  8  1  0  0  0  0
  7  9  1  0  0  0  0
  7 10  1  0  0  0  0
 10 11  1  0  0  0  0
 10 12  1  0  0  0  0
 10 13  1  0  0  0  0
 13 14  1  0  0  0  0
 13 15  1  0  0  0  0
 13 16  1  0  0  0  0
 16 17  1  0  0  0  0
 16 18  1  0  0  0  0
 16 19  1  0  0  0  0
 19 20  1  0  0  0  0
 19 21  1  0  0  0  0
 19 22  1  0  0  0  0
  1 23  1  0  0  0  0
 23 24  1  0  0  0  0
 23 25  1  0  0  0  0
 23 26  1  0  0  0  0
M  END
> <VConfSearch Rank>
947

> <Conf_Id>
46

> <Delta U+W>
0.496

> <U+W>
22.338

> <U>
71.138

> <W>
-48.799

> <W(PB)>
-51.136

> <W(SA)>
2.337

> <Valence>
2.016

> <Coulomb>
68.932

> <VdW>
0.190

> <VdW6>
-5.902

> <VdW12>
6.092

> <Bond>
0.149

> <Angle>
0.477

> <Pdih>
1.390

> <Idih>
0.000

> <Tether>
0.000

$$$$
VeraChem MOL file


 26 25  0  0  0  0  0  0  0  0999 V2000     
   18.8927   17.6442   20.8475 N   0  3  0  0  0  0  0  0  0  0  0  0
   17.9261   17.8649   20.5615 H   0  0  0  0  0  0  0  0  0  0  0  0
   18.8452   16.7059   21.2743 H   0  0  0  0  0  0  0  0  0  0  0  0
   19.3816   18.6568   21.8634 C   0  0  0  0  0  0  0  0  0  0  0  0
   19.4070   19.6349   21.3766 H   0  0  0  0  0  0  0  0  0  0  0  0
   20.4022   18.3832   22.1411 H   0  0  0  0  0  0  0  0  0  0  0  0
   18.4993   18.7286   23.1247 C   0  0  0  0  0  0  0  0  0  0  0  0
   17.4677   18.9608   22.8282 H   0  0  0  0  0  0  0  0  0  0  0  0
   18.4723   17.7453   23.6129 H   0  0  0  0  0  0  0  0  0  0  0  0
   18.9842   19.7967   24.1332 C   0  0  0  0  0  0  0  0  0  0  0  0
   18.2614   19.8553   24.9588 H   0  0  0  0  0  0  0  0  0  0  0  0
   18.9840   20.7837   23.6500 H   0  0  0  0  0  0  0  0  0  0  0  0
   20.3898   19.4968   24.7079 C   0  0  0  0  0  0  0  0  0  0  0  0
   20.3956   18.4957   25.1608 H   0  0  0  0  0  0  0  0  0  0  0  0
   21.1318   19.4840   23.8984 H   0  0  0  0  0  0  0  0  0  0  0  0
   20.8126   20.5412   25.7651 C   0  0  0  0  0  0  0  0  0  0  0  0
   20.0811   20.5568   26.5853 H   0  0  0  0  0  0  0  0  0  0  0  0
   20.8078   21.5451   25.3176 H   0  0  0  0  0  0  0  0  0  0  0  0
   22.2151   20.2421   26.3363 C   0  0  0  0  0  0  0  0  0  0  0  0
   22.2424   19.2575   26.8210 H   0  0  0  0  0  0  0  0  0  0  0  0
   22.4971   20.9937   27.0851 H   0  0  0  0  0  0  0  0  0  0  0  0
   22.9752   20.2545   25.5443 H   0  0  0  0  0  0  0  0  0  0  0  0
   19.8183   17.6349   19.6388 C   0  0  0  0  0  0  0  0  0  0  0  0
   19.4550   16.9019   18.9151 H   0  0  0  0  0  0  0  0  0  0  0  0
   19.8265   18.6284   19.1851 H   0  0  0  0  0  0  0  0  0  0  0  0
   20.8269   17.3666   19.9608 H   0  0  0  0  0  0  0  0  0  0  0  0
  1  2  1  0  0  0  0
  1  3  1  0  0  0  0
  1  4  1  0  0  0  0
  4  5  1  0  0  0  0
  4  6  1  0  0  0  0
  4  7  1  0  0  0  0
  7  8  1  0  0  0  0
  7  9  1  0  0  0  0
  7 10  1  0  0  0  0
 10 11  1  0  0  0  0
 10 12  1  0  0  0  0
 10 13  1  0  0  0  0
 13 14  1  0  0  0  0
 13 15  1  0  0  0  0
 13 16  1  0  0  0  0
 16 17  1  0  0  0  0
 16 18  1  0  0  0  0
 16 19  1  0  0  0  0
 19 20  1  0  0  0  0
 19 21  1  0  0  0  0
 19 22  1  0  0  0  0
  1 23  1  0  0  0  0
 23 24  1  0  0  0  0
 23 25  1  0  0  0  0
 23 26  1  0  0  0  0
M  END
> <VConfSearch Rank>
948

> <Conf_Id>
45

> <Delta U+W>
0.471

> <U+W>
22.313

> <U>
71.138

> <W>
-48.825

> <W(PB)>
-51.169

> <W(SA)>
2.344

> <Valence>
2.016

> <Coulomb>
68.932

> <VdW>
0.190

> <VdW6>
-5.902

> <VdW12>
6.092

> <Bond>
0.149

> <Angle>
0.477

> <Pdih>
1.390

> <Idih>
0.000

> <Tether>
0.000

$$$$
VeraChem MOL file


 26 25  0  0  0  0  0  0  0  0999 V2000     
   18.3560   20.1136   24.9425 N   0  3  0  0  0  0  0  0  0  0  0  0
   18.7688   20.8827   24.3936 H   0  0  0  0  0  0  0  0  0  0  0  0
   19.0433   19.9017   25.6823 H   0  0  0  0  0  0  0  0  0  0  0  0
   18.1476   18.8980   24.0601 C   0  0  0  0  0  0  0  0  0  0  0  0
   17.4232   19.1633   23.2861 H   0  0  0  0  0  0  0  0  0  0  0  0
   17.7114   18.1109   24.6804 H   0  0  0  0  0  0  0  0  0  0  0  0
   19.4399   18.3742   23.4033 C   0  0  0  0  0  0  0  0  0  0  0  0
   20.1593   18.1092   24.1884 H   0  0  0  0  0  0  0  0  0  0  0  0
   19.2043   17.4462   22.8657 H   0  0  0  0  0  0  0  0  0  0  0  0
   20.0624   19.3948   22.4178 C   0  0  0  0  0  0  0  0  0  0  0  0
   20.3857   20.2940   22.9591 H   0  0  0  0  0  0  0  0  0  0  0  0
   19.2899   19.7218   21.7078 H   0  0  0  0  0  0  0  0  0  0  0  0
   21.2578   18.8260   21.6142 C   0  0  0  0  0  0  0  0  0  0  0  0
   20.9349   17.9397   21.0507 H   0  0  0  0  0  0  0  0  0  0  0  0
   21.5612   19.5718   20.8664 H   0  0  0  0  0  0  0  0  0  0  0  0
   22.4802   18.4689   22.4928 C   0  0  0  0  0  0  0  0  0  0  0  0
   22.2196   17.6691   23.1987 H   0  0  0  0  0  0  0  0  0  0  0  0
   22.7733   19.3412   23.0937 H   0  0  0  0  0  0  0  0  0  0  0  0
   23.6812   18.0102   21.6382 C   0  0  0  0  0  0  0  0  0  0  0  0
   23.4282   17.1200   21.0476 H   0  0  0  0  0  0  0  0  0  0  0  0
   24.5378   17.7583   22.2768 H   0  0  0  0  0  0  0  0  0  0  0  0
   23.9988   18.8008   20.9460 H   0  0  0  0  0  0  0  0  0  0  0  0
   17.0296   20.5451   25.5524 C   0  0  0  0  0  0  0  0  0  0  0  0
   16.6277   19.7266   26.1536 H   0  0  0  0  0  0  0  0  0  0  0  0
   17.1938   21.4208   26.1843 H   0  0  0  0  0  0  0  0  0  0  0  0
   16.3301   20.7941   24.7513 H   0  0  0  0  0  0  0  0  0  0  0  0
  1  2  1  0  0  0  0
  1  3  1  0  0  0  0
  1  4  1  0  0  0  0
  4  5  1  0  0  0  0
  4  6  1  0  0  0  0
  4  7  1  0  0  0  0
  7  8  1  0  0  0  0
  7  9  1  0  0  0  0
  7 10  1  0  0  0  0
 10 11  1  0  0  0  0
 10 12  1  0  0  0  0
 10 13  1  0  0  0  0
 13 14  1  0  0  0  0
 13 15  1  0  0  0  0
 13 16  1  0  0  0  0
 16 17  1  0  0  0  0
 16 18  1  0  0  0  0
 16 19  1  0  0  0  0
 19 20  1  0  0  0  0
 19 21  1  0  0  0  0
 19 22  1  0  0  0  0
  1 23  1  0  0  0  0
 23 24  1  0  0  0  0
 23 25  1  0  0  0  0
 23 26  1  0  0  0  0
M  END
> <VConfSearch Rank>
949

> <Conf_Id>
143

> <Delta U+W>
0.915

> <U+W>
22.757

> <U>
71.994

> <W>
-49.237

> <W(PB)>
-51.537

> <W(SA)>
2.300

> <Valence>
2.376

> <Coulomb>
69.315

> <VdW>
0.303

> <VdW6>
-6.508

> <VdW12>
6.810

> <Bond>
0.182

> <Angle>
0.660

> <Pdih>
1.534

> <Idih>
0.000

> <Tether>
0.000

$$$$
VeraChem MOL file


 26 25  0  0  0  0  0  0  0  0999 V2000     
   19.1902   16.6123   23.7606 N   0  3  0  0  0  0  0  0  0  0  0  0
   20.1782   16.4282   23.5302 H   0  0  0  0  0  0  0  0  0  0  0  0
   18.6839   16.5664   22.8627 H   0  0  0  0  0  0  0  0  0  0  0  0
   19.0452   17.9930   24.3712 C   0  0  0  0  0  0  0  0  0  0  0  0
   19.6007   18.0068   25.3122 H   0  0  0  0  0  0  0  0  0  0  0  0
   17.9864   18.1416   24.5981 H   0  0  0  0  0  0  0  0  0  0  0  0
   19.5364   19.1367   23.4616 C   0  0  0  0  0  0  0  0  0  0  0  0
   18.9983   19.1025   22.5051 H   0  0  0  0  0  0  0  0  0  0  0  0
   19.2714   20.0852   23.9444 H   0  0  0  0  0  0  0  0  0  0  0  0
   21.0647   19.0930   23.2174 C   0  0  0  0  0  0  0  0  0  0  0  0
   21.3459   18.1042   22.8321 H   0  0  0  0  0  0  0  0  0  0  0  0
   21.5896   19.2075   24.1760 H   0  0  0  0  0  0  0  0  0  0  0  0
   21.5831   20.1586   22.2168 C   0  0  0  0  0  0  0  0  0  0  0  0
   22.6634   19.9987   22.0950 H   0  0  0  0  0  0  0  0  0  0  0  0
   21.1462   19.9879   21.2232 H   0  0  0  0  0  0  0  0  0  0  0  0
   21.3604   21.6293   22.6551 C   0  0  0  0  0  0  0  0  0  0  0  0
   22.2210   22.2273   22.3237 H   0  0  0  0  0  0  0  0  0  0  0  0
   21.3462   21.7039   23.7514 H   0  0  0  0  0  0  0  0  0  0  0  0
   20.0826   22.2622   22.0557 C   0  0  0  0  0  0  0  0  0  0  0  0
   19.1752   21.7296   22.3605 H   0  0  0  0  0  0  0  0  0  0  0  0
   20.1222   22.2602   20.9587 H   0  0  0  0  0  0  0  0  0  0  0  0
   19.9812   23.3052   22.3824 H   0  0  0  0  0  0  0  0  0  0  0  0
   18.6628   15.5604   24.7264 C   0  0  0  0  0  0  0  0  0  0  0  0
   17.6080   15.7570   24.9303 H   0  0  0  0  0  0  0  0  0  0  0  0
   18.7733   14.5720   24.2750 H   0  0  0  0  0  0  0  0  0  0  0  0
   19.2345   15.6075   25.6559 H   0  0  0  0  0  0  0  0  0  0  0  0
  1  2  1  0  0  0  0
  1  3  1  0  0  0  0
  1  4  1  0  0  0  0
  4  5  1  0  0  0  0
  4  6  1  0  0  0  0
  4  7  1  0  0  0  0
  7  8  1  0  0  0  0
  7  9  1  0  0  0  0
  7 10  1  0  0  0  0
 10 11  1  0  0  0  0
 10 12  1  0  0  0  0
 10 13  1  0  0  0  0
 13 14  1  0  0  0  0
 13 15  1  0  0  0  0
 13 16  1  0  0  0  0
 16 17  1  0  0  0  0
 16 18  1  0  0  0  0
 16 19  1  0  0  0  0
 19 20  1  0  0  0  0
 19 21  1  0  0  0  0
 19 22  1  0  0  0  0
  1 23  1  0  0  0  0
 23 24  1  0  0  0  0
 23 25  1  0  0  0  0
 23 26  1  0  0  0  0
M  END
> <VConfSearch Rank>
950

> <Conf_Id>
76

> <Delta U+W>
3.468

> <U+W>
25.310

> <U>
74.594

> <W>
-49.283

> <W(PB)>
-51.537

> <W(SA)>
2.253

> <Valence>
4.886

> <Coulomb>
69.332

> <VdW>
0.376

> <VdW6>
-7.329

> <VdW12>
7.705

> <Bond>
0.232

> <Angle>
1.251

> <Pdih>
3.403

> <Idih>
0.000

> <Tether>
0.000

$$$$
VeraChem MOL file


 26 25  0  0  0  0  0  0  0  0999 V2000     
   22.2652   17.4905   24.0989 N   0  3  0  0  0  0  0  0  0  0  0  0
   21.8708   16.8031   23.4381 H   0  0  0  0  0  0  0  0  0  0  0  0
   21.9719   17.1711   25.0353 H   0  0  0  0  0  0  0  0  0  0  0  0
   21.7033   18.8695   23.8170 C   0  0  0  0  0  0  0  0  0  0  0  0
   22.0296   19.1665   22.8171 H   0  0  0  0  0  0  0  0  0  0  0  0
   22.1380   19.5631   24.5412 H   0  0  0  0  0  0  0  0  0  0  0  0
   20.1673   18.9300   23.8993 C   0  0  0  0  0  0  0  0  0  0  0  0
   19.7402   18.2137   23.1886 H   0  0  0  0  0  0  0  0  0  0  0  0
   19.8453   18.6143   24.9006 H   0  0  0  0  0  0  0  0  0  0  0  0
   19.6441   20.3586   23.6149 C   0  0  0  0  0  0  0  0  0  0  0  0
   20.0069   20.7125   22.6399 H   0  0  0  0  0  0  0  0  0  0  0  0
   20.0781   21.0359   24.3636 H   0  0  0  0  0  0  0  0  0  0  0  0
   18.0989   20.4772   23.6833 C   0  0  0  0  0  0  0  0  0  0  0  0
   17.6910   19.7477   24.3965 H   0  0  0  0  0  0  0  0  0  0  0  0
   17.8498   21.4646   24.0963 H   0  0  0  0  0  0  0  0  0  0  0  0
   17.3764   20.3486   22.3176 C   0  0  0  0  0  0  0  0  0  0  0  0
   17.7149   21.1489   21.6448 H   0  0  0  0  0  0  0  0  0  0  0  0
   16.3021   20.5187   22.4749 H   0  0  0  0  0  0  0  0  0  0  0  0
   17.5641   18.9821   21.6228 C   0  0  0  0  0  0  0  0  0  0  0  0
   17.2973   18.1557   22.2940 H   0  0  0  0  0  0  0  0  0  0  0  0
   18.5999   18.8431   21.2896 H   0  0  0  0  0  0  0  0  0  0  0  0
   16.9232   18.9128   20.7343 H   0  0  0  0  0  0  0  0  0  0  0  0
   23.7839   17.5191   23.9961 C   0  0  0  0  0  0  0  0  0  0  0  0
   24.0699   17.8276   22.9882 H   0  0  0  0  0  0  0  0  0  0  0  0
   24.1800   18.2281   24.7266 H   0  0  0  0  0  0  0  0  0  0  0  0
   24.1757   16.5204   24.2014 H   0  0  0  0  0  0  0  0  0  0  0  0
  1  2  1  0  0  0  0
  1  3  1  0  0  0  0
  1  4  1  0  0  0  0
  4  5  1  0  0  0  0
  4  6  1  0  0  0  0
  4  7  1  0  0  0  0
  7  8  1  0  0  0  0
  7  9  1  0  0  0  0
  7 10  1  0  0  0  0
 10 11  1  0  0  0  0
 10 12  1  0  0  0  0
 10 13  1  0  0  0  0
 13 14  1  0  0  0  0
 13 15  1  0  0  0  0
 13 16  1  0  0  0  0
 16 17  1  0  0  0  0
 16 18  1  0  0  0  0
 16 19  1  0  0  0  0
 19 20  1  0  0  0  0
 19 21  1  0  0  0  0
 19 22  1  0  0  0  0
  1 23  1  0  0  0  0
 23 24  1  0  0  0  0
 23 25  1  0  0  0  0
 23 26  1  0  0  0  0
M  END
> <VConfSearch Rank>
951

> <Conf_Id>
123

> <Delta U+W>
3.101

> <U+W>
24.943

> <U>
74.070

> <W>
-49.127

> <W(PB)>
-51.421

> <W(SA)>
2.295

> <Valence>
4.690

> <Coulomb>
69.115

> <VdW>
0.266

> <VdW6>
-6.809

> <VdW12>
7.075

> <Bond>
0.212

> <Angle>
1.133

> <Pdih>
3.345

> <Idih>
0.000

> <Tether>
0.000

$$$$
VeraChem MOL file


 26 25  0  0  0  0  0  0  0  0999 V2000     
   21.2974   20.5701   25.1460 N   0  3  0  0  0  0  0  0  0  0  0  0
   20.9951   21.5274   24.9078 H   0  0  0  0  0  0  0  0  0  0  0  0
   22.0475   20.3423   24.4762 H   0  0  0  0  0  0  0  0  0  0  0  0
   20.1415   19.6021   24.9826 C   0  0  0  0  0  0  0  0  0  0  0  0
   19.3741   19.8800   25.7096 H   0  0  0  0  0  0  0  0  0  0  0  0
   20.5019   18.6011   25.2328 H   0  0  0  0  0  0  0  0  0  0  0  0
   19.5265   19.5931   23.5692 C   0  0  0  0  0  0  0  0  0  0  0  0
   18.6386   18.9512   23.5867 H   0  0  0  0  0  0  0  0  0  0  0  0
   19.1713   20.6018   23.3199 H   0  0  0  0  0  0  0  0  0  0  0  0
   20.5225   19.1026   22.4875 C   0  0  0  0  0  0  0  0  0  0  0  0
   20.9567   18.1357   22.7774 H   0  0  0  0  0  0  0  0  0  0  0  0
   21.3609   19.8101   22.4377 H   0  0  0  0  0  0  0  0  0  0  0  0
   19.8933   18.9995   21.0733 C   0  0  0  0  0  0  0  0  0  0  0  0
   19.0845   19.7346   20.9607 H   0  0  0  0  0  0  0  0  0  0  0  0
   20.6571   19.2859   20.3370 H   0  0  0  0  0  0  0  0  0  0  0  0
   19.3857   17.5853   20.6911 C   0  0  0  0  0  0  0  0  0  0  0  0
   20.2250   16.8760   20.7070 H   0  0  0  0  0  0  0  0  0  0  0  0
   19.0306   17.6118   19.6513 H   0  0  0  0  0  0  0  0  0  0  0  0
   18.2478   17.0523   21.5891 C   0  0  0  0  0  0  0  0  0  0  0  0
   17.4158   17.7664   21.6407 H   0  0  0  0  0  0  0  0  0  0  0  0
   18.6031   16.8537   22.6077 H   0  0  0  0  0  0  0  0  0  0  0  0
   17.8549   16.1082   21.1900 H   0  0  0  0  0  0  0  0  0  0  0  0
   21.8222   20.5146   26.5740 C   0  0  0  0  0  0  0  0  0  0  0  0
   22.1650   19.5006   26.7915 H   0  0  0  0  0  0  0  0  0  0  0  0
   22.6537   21.2153   26.6776 H   0  0  0  0  0  0  0  0  0  0  0  0
   21.0200   20.7897   27.2622 H   0  0  0  0  0  0  0  0  0  0  0  0
  1  2  1  0  0  0  0
  1  3  1  0  0  0  0
  1  4  1  0  0  0  0
  4  5  1  0  0  0  0
  4  6  1  0  0  0  0
  4  7  1  0  0  0  0
  7  8  1  0  0  0  0
  7  9  1  0  0  0  0
  7 10  1  0  0  0  0
 10 11  1  0  0  0  0
 10 12  1  0  0  0  0
 10 13  1  0  0  0  0
 13 14  1  0  0  0  0
 13 15  1  0  0  0  0
 13 16  1  0  0  0  0
 16 17  1  0  0  0  0
 16 18  1  0  0  0  0
 16 19  1  0  0  0  0
 19 20  1  0  0  0  0
 19 21  1  0  0  0  0
 19 22  1  0  0  0  0
  1 23  1  0  0  0  0
 23 24  1  0  0  0  0
 23 25  1  0  0  0  0
 23 26  1  0  0  0  0
M  END
> <VConfSearch Rank>
952

> <Conf_Id>
111

> <Delta U+W>
3.383

> <U+W>
25.225

> <U>
74.516

> <W>
-49.292

> <W(PB)>
-51.558

> <W(SA)>
2.266

> <Valence>
4.842

> <Coulomb>
69.333

> <VdW>
0.342

> <VdW6>
-7.369

> <VdW12>
7.711

> <Bond>
0.232

> <Angle>
1.153

> <Pdih>
3.457

> <Idih>
0.000

> <Tether>
0.000

$$$$
VeraChem MOL file


 26 25  0  0  0  0  0  0  0  0999 V2000     
   21.7935   17.6014   22.6769 N   0  3  0  0  0  0  0  0  0  0  0  0
   21.8781   17.4037   21.6677 H   0  0  0  0  0  0  0  0  0  0  0  0
   20.8424   17.3016   22.9392 H   0  0  0  0  0  0  0  0  0  0  0  0
   21.9570   19.0868   22.9328 C   0  0  0  0  0  0  0  0  0  0  0  0
   22.9702   19.3650   22.6320 H   0  0  0  0  0  0  0  0  0  0  0  0
   21.8648   19.2554   24.0082 H   0  0  0  0  0  0  0  0  0  0  0  0
   20.9392   19.9663   22.1770 C   0  0  0  0  0  0  0  0  0  0  0  0
   21.1633   21.0210   22.3850 H   0  0  0  0  0  0  0  0  0  0  0  0
   21.0819   19.8313   21.0966 H   0  0  0  0  0  0  0  0  0  0  0  0
   19.4596   19.6782   22.5375 C   0  0  0  0  0  0  0  0  0  0  0  0
   19.1980   18.6504   22.2529 H   0  0  0  0  0  0  0  0  0  0  0  0
   18.8272   20.3342   21.9253 H   0  0  0  0  0  0  0  0  0  0  0  0
   19.1415   19.9042   24.0377 C   0  0  0  0  0  0  0  0  0  0  0  0
   19.7899   19.2658   24.6521 H   0  0  0  0  0  0  0  0  0  0  0  0
   19.3775   20.9411   24.3141 H   0  0  0  0  0  0  0  0  0  0  0  0
   17.6711   19.5933   24.4094 C   0  0  0  0  0  0  0  0  0  0  0  0
   17.5614   19.6661   25.5005 H   0  0  0  0  0  0  0  0  0  0  0  0
   17.4324   18.5533   24.1462 H   0  0  0  0  0  0  0  0  0  0  0  0
   16.6514   20.5456   23.7438 C   0  0  0  0  0  0  0  0  0  0  0  0
   16.6315   20.4192   22.6544 H   0  0  0  0  0  0  0  0  0  0  0  0
   16.8878   21.5946   23.9648 H   0  0  0  0  0  0  0  0  0  0  0  0
   15.6387   20.3447   24.1166 H   0  0  0  0  0  0  0  0  0  0  0  0
   22.8363   16.8212   23.4650 C   0  0  0  0  0  0  0  0  0  0  0  0
   22.7064   15.7539   23.2724 H   0  0  0  0  0  0  0  0  0  0  0  0
   23.8336   17.1344   23.1485 H   0  0  0  0  0  0  0  0  0  0  0  0
   22.7059   17.0225   24.5305 H   0  0  0  0  0  0  0  0  0  0  0  0
  1  2  1  0  0  0  0
  1  3  1  0  0  0  0
  1  4  1  0  0  0  0
  4  5  1  0  0  0  0
  4  6  1  0  0  0  0
  4  7  1  0  0  0  0
  7  8  1  0  0  0  0
  7  9  1  0  0  0  0
  7 10  1  0  0  0  0
 10 11  1  0  0  0  0
 10 12  1  0  0  0  0
 10 13  1  0  0  0  0
 13 14  1  0  0  0  0
 13 15  1  0  0  0  0
 13 16  1  0  0  0  0
 16 17  1  0  0  0  0
 16 18  1  0  0  0  0
 16 19  1  0  0  0  0
 19 20  1  0  0  0  0
 19 21  1  0  0  0  0
 19 22  1  0  0  0  0
  1 23  1  0  0  0  0
 23 24  1  0  0  0  0
 23 25  1  0  0  0  0
 23 26  1  0  0  0  0
M  END
> <VConfSearch Rank>
953

> <Conf_Id>
126

> <Delta U+W>
1.519

> <U+W>
23.361

> <U>
72.579

> <W>
-49.218

> <W(PB)>
-51.496

> <W(SA)>
2.279

> <Valence>
2.678

> <Coulomb>
69.622

> <VdW>
0.279

> <VdW6>
-7.328

> <VdW12>
7.608

> <Bond>
0.212

> <Angle>
0.911

> <Pdih>
1.555

> <Idih>
0.000

> <Tether>
0.000

$$$$
VeraChem MOL file


 26 25  0  0  0  0  0  0  0  0999 V2000     
   21.6810   18.2456   24.8171 N   0  3  0  0  0  0  0  0  0  0  0  0
   21.8818   18.4487   23.8263 H   0  0  0  0  0  0  0  0  0  0  0  0
   21.6987   17.2171   24.8983 H   0  0  0  0  0  0  0  0  0  0  0  0
   20.3087   18.7742   25.1859 C   0  0  0  0  0  0  0  0  0  0  0  0
   20.3305   19.8624   25.0913 H   0  0  0  0  0  0  0  0  0  0  0  0
   20.1309   18.5292   26.2361 H   0  0  0  0  0  0  0  0  0  0  0  0
   19.1654   18.1977   24.3251 C   0  0  0  0  0  0  0  0  0  0  0  0
   19.1174   17.1109   24.4747 H   0  0  0  0  0  0  0  0  0  0  0  0
   18.2117   18.5988   24.6932 H   0  0  0  0  0  0  0  0  0  0  0  0
   19.2959   18.5003   22.8107 C   0  0  0  0  0  0  0  0  0  0  0  0
   18.4527   18.0224   22.2952 H   0  0  0  0  0  0  0  0  0  0  0  0
   20.2038   18.0292   22.4114 H   0  0  0  0  0  0  0  0  0  0  0  0
   19.3073   20.0168   22.4897 C   0  0  0  0  0  0  0  0  0  0  0  0
   18.3851   20.4816   22.8651 H   0  0  0  0  0  0  0  0  0  0  0  0
   20.1359   20.5003   23.0237 H   0  0  0  0  0  0  0  0  0  0  0  0
   19.4636   20.3261   20.9809 C   0  0  0  0  0  0  0  0  0  0  0  0
   20.3909   19.8739   20.6022 H   0  0  0  0  0  0  0  0  0  0  0  0
   19.5784   21.4119   20.8547 H   0  0  0  0  0  0  0  0  0  0  0  0
   18.2664   19.8513   20.1260 C   0  0  0  0  0  0  0  0  0  0  0  0
   17.3222   20.2637   20.5048 H   0  0  0  0  0  0  0  0  0  0  0  0
   18.1850   18.7575   20.1162 H   0  0  0  0  0  0  0  0  0  0  0  0
   18.3828   20.1816   19.0857 H   0  0  0  0  0  0  0  0  0  0  0  0
   22.7374   18.8723   25.7161 C   0  0  0  0  0  0  0  0  0  0  0  0
   22.7201   19.9569   25.5885 H   0  0  0  0  0  0  0  0  0  0  0  0
   22.5203   18.6184   26.7559 H   0  0  0  0  0  0  0  0  0  0  0  0
   23.7200   18.4839   25.4390 H   0  0  0  0  0  0  0  0  0  0  0  0
  1  2  1  0  0  0  0
  1  3  1  0  0  0  0
  1  4  1  0  0  0  0
  4  5  1  0  0  0  0
  4  6  1  0  0  0  0
  4  7  1  0  0  0  0
  7  8  1  0  0  0  0
  7  9  1  0  0  0  0
  7 10  1  0  0  0  0
 10 11  1  0  0  0  0
 10 12  1  0  0  0  0
 10 13  1  0  0  0  0
 13 14  1  0  0  0  0
 13 15  1  0  0  0  0
 13 16  1  0  0  0  0
 16 17  1  0  0  0  0
 16 18  1  0  0  0  0
 16 19  1  0  0  0  0
 19 20  1  0  0  0  0
 19 21  1  0  0  0  0
 19 22  1  0  0  0  0
  1 23  1  0  0  0  0
 23 24  1  0  0  0  0
 23 25  1  0  0  0  0
 23 26  1  0  0  0  0
M  END
> <VConfSearch Rank>
954

> <Conf_Id>
134

> <Delta U+W>
1.464

> <U+W>
23.306

> <U>
72.579

> <W>
-49.273

> <W(PB)>
-51.540

> <W(SA)>
2.267

> <Valence>
2.677

> <Coulomb>
69.622

> <VdW>
0.280

> <VdW6>
-7.328

> <VdW12>
7.608

> <Bond>
0.212

> <Angle>
0.911

> <Pdih>
1.555

> <Idih>
0.000

> <Tether>
0.000

$$$$
VeraChem MOL file


 26 25  0  0  0  0  0  0  0  0999 V2000     
   19.6506   21.5924   24.4713 N   0  3  0  0  0  0  0  0  0  0  0  0
   19.0649   21.7715   23.6409 H   0  0  0  0  0  0  0  0  0  0  0  0
   20.5475   22.0664   24.2823 H   0  0  0  0  0  0  0  0  0  0  0  0
   19.8726   20.1031   24.6435 C   0  0  0  0  0  0  0  0  0  0  0  0
   18.9014   19.6390   24.8332 H   0  0  0  0  0  0  0  0  0  0  0  0
   20.5018   19.9578   25.5253 H   0  0  0  0  0  0  0  0  0  0  0  0
   20.5331   19.4405   23.4211 C   0  0  0  0  0  0  0  0  0  0  0  0
   19.9021   19.6085   22.5391 H   0  0  0  0  0  0  0  0  0  0  0  0
   21.5011   19.9199   23.2242 H   0  0  0  0  0  0  0  0  0  0  0  0
   20.7391   17.9240   23.6453 C   0  0  0  0  0  0  0  0  0  0  0  0
   19.7679   17.4365   23.8035 H   0  0  0  0  0  0  0  0  0  0  0  0
   21.3059   17.7748   24.5749 H   0  0  0  0  0  0  0  0  0  0  0  0
   21.5018   17.2234   22.4909 C   0  0  0  0  0  0  0  0  0  0  0  0
   22.5129   17.6477   22.4213 H   0  0  0  0  0  0  0  0  0  0  0  0
   21.6384   16.1646   22.7507 H   0  0  0  0  0  0  0  0  0  0  0  0
   20.8256   17.3139   21.0988 C   0  0  0  0  0  0  0  0  0  0  0  0
   21.4554   16.7853   20.3696 H   0  0  0  0  0  0  0  0  0  0  0  0
   20.7892   18.3583   20.7611 H   0  0  0  0  0  0  0  0  0  0  0  0
   19.4057   16.7042   21.0636 C   0  0  0  0  0  0  0  0  0  0  0  0
   19.4139   15.6645   21.4155 H   0  0  0  0  0  0  0  0  0  0  0  0
   19.0105   16.7089   20.0396 H   0  0  0  0  0  0  0  0  0  0  0  0
   18.7075   17.2739   21.6893 H   0  0  0  0  0  0  0  0  0  0  0  0
   18.9961   22.1664   25.7203 C   0  0  0  0  0  0  0  0  0  0  0  0
   19.6486   21.9943   26.5791 H   0  0  0  0  0  0  0  0  0  0  0  0
   18.8420   23.2391   25.5832 H   0  0  0  0  0  0  0  0  0  0  0  0
   18.0349   21.6733   25.8810 H   0  0  0  0  0  0  0  0  0  0  0  0
  1  2  1  0  0  0  0
  1  3  1  0  0  0  0
  1  4  1  0  0  0  0
  4  5  1  0  0  0  0
  4  6  1  0  0  0  0
  4  7  1  0  0  0  0
  7  8  1  0  0  0  0
  7  9  1  0  0  0  0
  7 10  1  0  0  0  0
 10 11  1  0  0  0  0
 10 12  1  0  0  0  0
 10 13  1  0  0  0  0
 13 14  1  0  0  0  0
 13 15  1  0  0  0  0
 13 16  1  0  0  0  0
 16 17  1  0  0  0  0
 16 18  1  0  0  0  0
 16 19  1  0  0  0  0
 19 20  1  0  0  0  0
 19 21  1  0  0  0  0
 19 22  1  0  0  0  0
  1 23  1  0  0  0  0
 23 24  1  0  0  0  0
 23 25  1  0  0  0  0
 23 26  1  0  0  0  0
M  END
> <VConfSearch Rank>
955

> <Conf_Id>
30

> <Delta U+W>
0.910

> <U+W>
22.752

> <U>
71.870

> <W>
-49.118

> <W(PB)>
-51.409

> <W(SA)>
2.290

> <Valence>
2.682

> <Coulomb>
68.933

> <VdW>
0.255

> <VdW6>
-6.833

> <VdW12>
7.088

> <Bond>
0.205

> <Angle>
1.003

> <Pdih>
1.473

> <Idih>
0.000

> <Tether>
0.000

$$$$
VeraChem MOL file


 26 25  0  0  0  0  0  0  0  0999 V2000     
   17.7889   20.7177   23.8725 N   0  3  0  0  0  0  0  0  0  0  0  0
   18.1306   21.2311   24.6999 H   0  0  0  0  0  0  0  0  0  0  0  0
   17.3440   19.8638   24.2436 H   0  0  0  0  0  0  0  0  0  0  0  0
   18.9488   20.3526   22.9681 C   0  0  0  0  0  0  0  0  0  0  0  0
   19.3957   21.2814   22.6046 H   0  0  0  0  0  0  0  0  0  0  0  0
   18.5469   19.8055   22.1115 H   0  0  0  0  0  0  0  0  0  0  0  0
   20.0227   19.5007   23.6688 C   0  0  0  0  0  0  0  0  0  0  0  0
   20.4127   20.0470   24.5378 H   0  0  0  0  0  0  0  0  0  0  0  0
   19.5590   18.5801   24.0452 H   0  0  0  0  0  0  0  0  0  0  0  0
   21.1837   19.1554   22.7069 C   0  0  0  0  0  0  0  0  0  0  0  0
   21.5827   20.0865   22.2809 H   0  0  0  0  0  0  0  0  0  0  0  0
   20.8014   18.5750   21.8565 H   0  0  0  0  0  0  0  0  0  0  0  0
   22.3488   18.3918   23.3885 C   0  0  0  0  0  0  0  0  0  0  0  0
   23.1419   18.2247   22.6467 H   0  0  0  0  0  0  0  0  0  0  0  0
   22.7924   19.0336   24.1621 H   0  0  0  0  0  0  0  0  0  0  0  0
   21.9663   17.0319   24.0270 C   0  0  0  0  0  0  0  0  0  0  0  0
   21.2643   17.1860   24.8574 H   0  0  0  0  0  0  0  0  0  0  0  0
   22.8676   16.5906   24.4750 H   0  0  0  0  0  0  0  0  0  0  0  0
   21.3686   16.0249   23.0182 C   0  0  0  0  0  0  0  0  0  0  0  0
   20.4022   16.3698   22.6299 H   0  0  0  0  0  0  0  0  0  0  0  0
   21.2029   15.0519   23.4985 H   0  0  0  0  0  0  0  0  0  0  0  0
   22.0454   15.8689   22.1682 H   0  0  0  0  0  0  0  0  0  0  0  0
   16.7769   21.5563   23.1041 C   0  0  0  0  0  0  0  0  0  0  0  0
   15.9472   21.8125   23.7667 H   0  0  0  0  0  0  0  0  0  0  0  0
   17.2616   22.4689   22.7502 H   0  0  0  0  0  0  0  0  0  0  0  0
   16.4055   20.9807   22.2535 H   0  0  0  0  0  0  0  0  0  0  0  0
  1  2  1  0  0  0  0
  1  3  1  0  0  0  0
  1  4  1  0  0  0  0
  4  5  1  0  0  0  0
  4  6  1  0  0  0  0
  4  7  1  0  0  0  0
  7  8  1  0  0  0  0
  7  9  1  0  0  0  0
  7 10  1  0  0  0  0
 10 11  1  0  0  0  0
 10 12  1  0  0  0  0
 10 13  1  0  0  0  0
 13 14  1  0  0  0  0
 13 15  1  0  0  0  0
 13 16  1  0  0  0  0
 16 17  1  0  0  0  0
 16 18  1  0  0  0  0
 16 19  1  0  0  0  0
 19 20  1  0  0  0  0
 19 21  1  0  0  0  0
 19 22  1  0  0  0  0
  1 23  1  0  0  0  0
 23 24  1  0  0  0  0
 23 25  1  0  0  0  0
 23 26  1  0  0  0  0
M  END
> <VConfSearch Rank>
956

> <Conf_Id>
29

> <Delta U+W>
0.886

> <U+W>
22.729

> <U>
71.870

> <W>
-49.141

> <W(PB)>
-51.404

> <W(SA)>
2.262

> <Valence>
2.682

> <Coulomb>
68.933

> <VdW>
0.255

> <VdW6>
-6.833

> <VdW12>
7.088

> <Bond>
0.205

> <Angle>
1.003

> <Pdih>
1.473

> <Idih>
0.000

> <Tether>
0.000

$$$$
VeraChem MOL file


 26 25  0  0  0  0  0  0  0  0999 V2000     
   21.9650   19.2658   25.0393 N   0  3  0  0  0  0  0  0  0  0  0  0
   21.6911   19.2990   26.0336 H   0  0  0  0  0  0  0  0  0  0  0  0
   22.0297   20.2508   24.7392 H   0  0  0  0  0  0  0  0  0  0  0  0
   20.9088   18.5404   24.2303 C   0  0  0  0  0  0  0  0  0  0  0  0
   20.8629   17.5082   24.5864 H   0  0  0  0  0  0  0  0  0  0  0  0
   21.2356   18.5313   23.1877 H   0  0  0  0  0  0  0  0  0  0  0  0
   19.5137   19.1859   24.3314 C   0  0  0  0  0  0  0  0  0  0  0  0
   19.2101   19.2227   25.3860 H   0  0  0  0  0  0  0  0  0  0  0  0
   19.5619   20.2272   23.9881 H   0  0  0  0  0  0  0  0  0  0  0  0
   18.4385   18.4128   23.5280 C   0  0  0  0  0  0  0  0  0  0  0  0
   17.4679   18.9104   23.6558 H   0  0  0  0  0  0  0  0  0  0  0  0
   18.3180   17.4129   23.9675 H   0  0  0  0  0  0  0  0  0  0  0  0
   18.7452   18.2540   22.0141 C   0  0  0  0  0  0  0  0  0  0  0  0
   19.6267   17.6116   21.8857 H   0  0  0  0  0  0  0  0  0  0  0  0
   17.9142   17.7109   21.5433 H   0  0  0  0  0  0  0  0  0  0  0  0
   18.9749   19.5801   21.2451 C   0  0  0  0  0  0  0  0  0  0  0  0
   19.1936   19.3422   20.1947 H   0  0  0  0  0  0  0  0  0  0  0  0
   19.8674   20.0922   21.6288 H   0  0  0  0  0  0  0  0  0  0  0  0
   17.7619   20.5365   21.2961 C   0  0  0  0  0  0  0  0  0  0  0  0
   17.9413   21.4192   20.6689 H   0  0  0  0  0  0  0  0  0  0  0  0
   17.5705   20.8900   22.3169 H   0  0  0  0  0  0  0  0  0  0  0  0
   16.8538   20.0419   20.9278 H   0  0  0  0  0  0  0  0  0  0  0  0
   23.3091   18.5692   24.8786 C   0  0  0  0  0  0  0  0  0  0  0  0
   24.0607   19.1011   25.4663 H   0  0  0  0  0  0  0  0  0  0  0  0
   23.2246   17.5395   25.2329 H   0  0  0  0  0  0  0  0  0  0  0  0
   23.5931   18.5757   23.8240 H   0  0  0  0  0  0  0  0  0  0  0  0
  1  2  1  0  0  0  0
  1  3  1  0  0  0  0
  1  4  1  0  0  0  0
  4  5  1  0  0  0  0
  4  6  1  0  0  0  0
  4  7  1  0  0  0  0
  7  8  1  0  0  0  0
  7  9  1  0  0  0  0
  7 10  1  0  0  0  0
 10 11  1  0  0  0  0
 10 12  1  0  0  0  0
 10 13  1  0  0  0  0
 13 14  1  0  0  0  0
 13 15  1  0  0  0  0
 13 16  1  0  0  0  0
 16 17  1  0  0  0  0
 16 18  1  0  0  0  0
 16 19  1  0  0  0  0
 19 20  1  0  0  0  0
 19 21  1  0  0  0  0
 19 22  1  0  0  0  0
  1 23  1  0  0  0  0
 23 24  1  0  0  0  0
 23 25  1  0  0  0  0
 23 26  1  0  0  0  0
M  END
> <VConfSearch Rank>
957

> <Conf_Id>
82

> <Delta U+W>
1.026

> <U+W>
22.868

> <U>
72.455

> <W>
-49.586

> <W(PB)>
-51.821

> <W(SA)>
2.234

> <Valence>
2.908

> <Coulomb>
69.435

> <VdW>
0.112

> <VdW6>
-7.765

> <VdW12>
7.877

> <Bond>
0.233

> <Angle>
1.170

> <Pdih>
1.506

> <Idih>
0.000

> <Tether>
0.000

$$$$
VeraChem MOL file


 26 25  0  0  0  0  0  0  0  0999 V2000     
   21.6400   18.8669   21.1729 N   0  3  0  0  0  0  0  0  0  0  0  0
   20.7831   18.5615   20.6860 H   0  0  0  0  0  0  0  0  0  0  0  0
   22.2728   18.0520   21.1525 H   0  0  0  0  0  0  0  0  0  0  0  0
   21.3216   19.2455   22.6052 C   0  0  0  0  0  0  0  0  0  0  0  0
   20.6493   20.1065   22.5807 H   0  0  0  0  0  0  0  0  0  0  0  0
   22.2539   19.5495   23.0876 H   0  0  0  0  0  0  0  0  0  0  0  0
   20.6717   18.1023   23.4077 C   0  0  0  0  0  0  0  0  0  0  0  0
   19.7430   17.7861   22.9157 H   0  0  0  0  0  0  0  0  0  0  0  0
   21.3390   17.2303   23.3961 H   0  0  0  0  0  0  0  0  0  0  0  0
   20.3850   18.4932   24.8788 C   0  0  0  0  0  0  0  0  0  0  0  0
   21.3399   18.6858   25.3872 H   0  0  0  0  0  0  0  0  0  0  0  0
   19.9416   17.6337   25.3989 H   0  0  0  0  0  0  0  0  0  0  0  0
   19.4706   19.7356   25.0564 C   0  0  0  0  0  0  0  0  0  0  0  0
   19.3202   19.9093   26.1308 H   0  0  0  0  0  0  0  0  0  0  0  0
   19.9913   20.6282   24.6842 H   0  0  0  0  0  0  0  0  0  0  0  0
   18.0856   19.6391   24.3671 C   0  0  0  0  0  0  0  0  0  0  0  0
   18.2072   19.5716   23.2777 H   0  0  0  0  0  0  0  0  0  0  0  0
   17.5374   20.5738   24.5507 H   0  0  0  0  0  0  0  0  0  0  0  0
   17.2310   18.4542   24.8715 C   0  0  0  0  0  0  0  0  0  0  0  0
   17.6868   17.4903   24.6132 H   0  0  0  0  0  0  0  0  0  0  0  0
   16.2320   18.4796   24.4174 H   0  0  0  0  0  0  0  0  0  0  0  0
   17.1054   18.4941   25.9612 H   0  0  0  0  0  0  0  0  0  0  0  0
   22.2704   20.0507   20.4525 C   0  0  0  0  0  0  0  0  0  0  0  0
   23.1917   20.3344   20.9660 H   0  0  0  0  0  0  0  0  0  0  0  0
   22.4952   19.7648   19.4226 H   0  0  0  0  0  0  0  0  0  0  0  0
   21.5702   20.8889   20.4582 H   0  0  0  0  0  0  0  0  0  0  0  0
  1  2  1  0  0  0  0
  1  3  1  0  0  0  0
  1  4  1  0  0  0  0
  4  5  1  0  0  0  0
  4  6  1  0  0  0  0
  4  7  1  0  0  0  0
  7  8  1  0  0  0  0
  7  9  1  0  0  0  0
  7 10  1  0  0  0  0
 10 11  1  0  0  0  0
 10 12  1  0  0  0  0
 10 13  1  0  0  0  0
 13 14  1  0  0  0  0
 13 15  1  0  0  0  0
 13 16  1  0  0  0  0
 16 17  1  0  0  0  0
 16 18  1  0  0  0  0
 16 19  1  0  0  0  0
 19 20  1  0  0  0  0
 19 21  1  0  0  0  0
 19 22  1  0  0  0  0
  1 23  1  0  0  0  0
 23 24  1  0  0  0  0
 23 25  1  0  0  0  0
 23 26  1  0  0  0  0
M  END
> <VConfSearch Rank>
958

> <Conf_Id>
71

> <Delta U+W>
1.096

> <U+W>
22.938

> <U>
72.455

> <W>
-49.517

> <W(PB)>
-51.795

> <W(SA)>
2.278

> <Valence>
2.908

> <Coulomb>
69.435

> <VdW>
0.112

> <VdW6>
-7.766

> <VdW12>
7.877

> <Bond>
0.233

> <Angle>
1.170

> <Pdih>
1.506

> <Idih>
0.000

> <Tether>
0.000

$$$$
VeraChem MOL file


 26 25  0  0  0  0  0  0  0  0999 V2000     
   21.4979   20.9384   23.9841 N   0  3  0  0  0  0  0  0  0  0  0  0
   20.7035   20.5956   24.5446 H   0  0  0  0  0  0  0  0  0  0  0  0
   21.4464   21.9677   24.0433 H   0  0  0  0  0  0  0  0  0  0  0  0
   21.3387   20.5018   22.5364 C   0  0  0  0  0  0  0  0  0  0  0  0
   22.2069   20.8674   21.9822 H   0  0  0  0  0  0  0  0  0  0  0  0
   20.4535   21.0043   22.1393 H   0  0  0  0  0  0  0  0  0  0  0  0
   21.1934   18.9778   22.3226 C   0  0  0  0  0  0  0  0  0  0  0  0
   21.0782   18.7843   21.2480 H   0  0  0  0  0  0  0  0  0  0  0  0
   22.1247   18.4788   22.6202 H   0  0  0  0  0  0  0  0  0  0  0  0
   20.0055   18.3399   23.0863 C   0  0  0  0  0  0  0  0  0  0  0  0
   20.1510   18.4585   24.1682 H   0  0  0  0  0  0  0  0  0  0  0  0
   20.0184   17.2594   22.8934 H   0  0  0  0  0  0  0  0  0  0  0  0
   18.6301   18.9235   22.6733 C   0  0  0  0  0  0  0  0  0  0  0  0
   18.6258   20.0090   22.8373 H   0  0  0  0  0  0  0  0  0  0  0  0
   18.4731   18.7738   21.5962 H   0  0  0  0  0  0  0  0  0  0  0  0
   17.4421   18.3147   23.4572 C   0  0  0  0  0  0  0  0  0  0  0  0
   16.5266   18.8598   23.1877 H   0  0  0  0  0  0  0  0  0  0  0  0
   17.5871   18.4729   24.5350 H   0  0  0  0  0  0  0  0  0  0  0  0
   17.2241   16.8101   23.1771 C   0  0  0  0  0  0  0  0  0  0  0  0
   18.0612   16.2048   23.5458 H   0  0  0  0  0  0  0  0  0  0  0  0
   17.1092   16.6209   22.1020 H   0  0  0  0  0  0  0  0  0  0  0  0
   16.3150   16.4541   23.6790 H   0  0  0  0  0  0  0  0  0  0  0  0
   22.8200   20.4503   24.5648 C   0  0  0  0  0  0  0  0  0  0  0  0
   22.9126   20.8075   25.5928 H   0  0  0  0  0  0  0  0  0  0  0  0
   22.8386   19.3586   24.5521 H   0  0  0  0  0  0  0  0  0  0  0  0
   23.6426   20.8423   23.9626 H   0  0  0  0  0  0  0  0  0  0  0  0
  1  2  1  0  0  0  0
  1  3  1  0  0  0  0
  1  4  1  0  0  0  0
  4  5  1  0  0  0  0
  4  6  1  0  0  0  0
  4  7  1  0  0  0  0
  7  8  1  0  0  0  0
  7  9  1  0  0  0  0
  7 10  1  0  0  0  0
 10 11  1  0  0  0  0
 10 12  1  0  0  0  0
 10 13  1  0  0  0  0
 13 14  1  0  0  0  0
 13 15  1  0  0  0  0
 13 16  1  0  0  0  0
 16 17  1  0  0  0  0
 16 18  1  0  0  0  0
 16 19  1  0  0  0  0
 19 20  1  0  0  0  0
 19 21  1  0  0  0  0
 19 22  1  0  0  0  0
  1 23  1  0  0  0  0
 23 24  1  0  0  0  0
 23 25  1  0  0  0  0
 23 26  1  0  0  0  0
M  END
> <VConfSearch Rank>
959

> <Conf_Id>
84

> <Delta U+W>
1.456

> <U+W>
23.298

> <U>
73.042

> <W>
-49.744

> <W(PB)>
-51.966

> <W(SA)>
2.222

> <Valence>
2.938

> <Coulomb>
69.625

> <VdW>
0.478

> <VdW6>
-8.182

> <VdW12>
8.660

> <Bond>
0.253

> <Angle>
1.038

> <Pdih>
1.647

> <Idih>
0.000

> <Tether>
0.000

$$$$
VeraChem MOL file


 26 25  0  0  0  0  0  0  0  0999 V2000     
   21.2935   18.2972   25.0486 N   0  3  0  0  0  0  0  0  0  0  0  0
   21.6565   18.5610   24.1203 H   0  0  0  0  0  0  0  0  0  0  0  0
   21.5322   17.3004   25.1666 H   0  0  0  0  0  0  0  0  0  0  0  0
   19.7891   18.4814   25.0878 C   0  0  0  0  0  0  0  0  0  0  0  0
   19.5769   19.5459   24.9641 H   0  0  0  0  0  0  0  0  0  0  0  0
   19.4443   18.1799   26.0802 H   0  0  0  0  0  0  0  0  0  0  0  0
   19.0330   17.6707   24.0149 C   0  0  0  0  0  0  0  0  0  0  0  0
   19.2112   16.6000   24.1811 H   0  0  0  0  0  0  0  0  0  0  0  0
   17.9547   17.8257   24.1526 H   0  0  0  0  0  0  0  0  0  0  0  0
   19.4191   18.0350   22.5590 C   0  0  0  0  0  0  0  0  0  0  0  0
   18.8397   17.3994   21.8751 H   0  0  0  0  0  0  0  0  0  0  0  0
   20.4747   17.7908   22.3795 H   0  0  0  0  0  0  0  0  0  0  0  0
   19.1593   19.5211   22.2128 C   0  0  0  0  0  0  0  0  0  0  0  0
   18.1079   19.7668   22.4166 H   0  0  0  0  0  0  0  0  0  0  0  0
   19.7680   20.1698   22.8567 H   0  0  0  0  0  0  0  0  0  0  0  0
   19.4820   19.8309   20.7340 C   0  0  0  0  0  0  0  0  0  0  0  0
   18.8705   19.1943   20.0790 H   0  0  0  0  0  0  0  0  0  0  0  0
   20.5323   19.5850   20.5236 H   0  0  0  0  0  0  0  0  0  0  0  0
   19.2250   21.3138   20.3908 C   0  0  0  0  0  0  0  0  0  0  0  0
   18.1737   21.5816   20.5590 H   0  0  0  0  0  0  0  0  0  0  0  0
   19.4589   21.5140   19.3371 H   0  0  0  0  0  0  0  0  0  0  0  0
   19.8488   21.9755   21.0057 H   0  0  0  0  0  0  0  0  0  0  0  0
   21.9475   19.1372   26.1367 C   0  0  0  0  0  0  0  0  0  0  0  0
   21.5702   18.8192   27.1111 H   0  0  0  0  0  0  0  0  0  0  0  0
   23.0299   18.9959   26.0964 H   0  0  0  0  0  0  0  0  0  0  0  0
   21.7063   20.1896   25.9718 H   0  0  0  0  0  0  0  0  0  0  0  0
  1  2  1  0  0  0  0
  1  3  1  0  0  0  0
  1  4  1  0  0  0  0
  4  5  1  0  0  0  0
  4  6  1  0  0  0  0
  4  7  1  0  0  0  0
  7  8  1  0  0  0  0
  7  9  1  0  0  0  0
  7 10  1  0  0  0  0
 10 11  1  0  0  0  0
 10 12  1  0  0  0  0
 10 13  1  0  0  0  0
 13 14  1  0  0  0  0
 13 15  1  0  0  0  0
 13 16  1  0  0  0  0
 16 17  1  0  0  0  0
 16 18  1  0  0  0  0
 16 19  1  0  0  0  0
 19 20  1  0  0  0  0
 19 21  1  0  0  0  0
 19 22  1  0  0  0  0
  1 23  1  0  0  0  0
 23 24  1  0  0  0  0
 23 25  1  0  0  0  0
 23 26  1  0  0  0  0
M  END
> <VConfSearch Rank>
960

> <Conf_Id>
73

> <Delta U+W>
0.884

> <U+W>
22.726

> <U>
71.905

> <W>
-49.179

> <W(PB)>
-51.494

> <W(SA)>
2.315

> <Valence>
2.125

> <Coulomb>
69.686

> <VdW>
0.093

> <VdW6>
-6.766

> <VdW12>
6.859

> <Bond>
0.169

> <Angle>
0.621

> <Pdih>
1.336

> <Idih>
0.000

> <Tether>
0.000

$$$$
VeraChem MOL file


 26 25  0  0  0  0  0  0  0  0999 V2000     
   18.8758   21.9596   24.1662 N   0  3  0  0  0  0  0  0  0  0  0  0
   18.7145   22.3042   23.2070 H   0  0  0  0  0  0  0  0  0  0  0  0
   19.7833   22.3590   24.4523 H   0  0  0  0  0  0  0  0  0  0  0  0
   18.9451   20.4457   24.1734 C   0  0  0  0  0  0  0  0  0  0  0  0
   17.9709   20.0640   23.8578 H   0  0  0  0  0  0  0  0  0  0  0  0
   19.1245   20.1232   25.2022 H   0  0  0  0  0  0  0  0  0  0  0  0
   20.0446   19.8823   23.2548 C   0  0  0  0  0  0  0  0  0  0  0  0
   19.8697   20.2223   22.2253 H   0  0  0  0  0  0  0  0  0  0  0  0
   21.0195   20.2813   23.5652 H   0  0  0  0  0  0  0  0  0  0  0  0
   20.0778   18.3383   23.2943 C   0  0  0  0  0  0  0  0  0  0  0  0
   19.0990   17.9431   22.9884 H   0  0  0  0  0  0  0  0  0  0  0  0
   20.2472   18.0021   24.3268 H   0  0  0  0  0  0  0  0  0  0  0  0
   21.1785   17.7610   22.3754 C   0  0  0  0  0  0  0  0  0  0  0  0
   21.0092   18.0970   21.3429 H   0  0  0  0  0  0  0  0  0  0  0  0
   22.1573   18.1560   22.6812 H   0  0  0  0  0  0  0  0  0  0  0  0
   21.2115   16.2168   22.4151 C   0  0  0  0  0  0  0  0  0  0  0  0
   20.2352   15.8166   22.1076 H   0  0  0  0  0  0  0  0  0  0  0  0
   21.3832   15.8756   23.4457 H   0  0  0  0  0  0  0  0  0  0  0  0
   22.3118   15.6440   21.4964 C   0  0  0  0  0  0  0  0  0  0  0  0
   22.3195   14.5471   21.5381 H   0  0  0  0  0  0  0  0  0  0  0  0
   23.3050   15.9994   21.8006 H   0  0  0  0  0  0  0  0  0  0  0  0
   22.1479   15.9400   20.4520 H   0  0  0  0  0  0  0  0  0  0  0  0
   17.7673   22.4320   25.0968 C   0  0  0  0  0  0  0  0  0  0  0  0
   17.9768   22.0840   26.1107 H   0  0  0  0  0  0  0  0  0  0  0  0
   17.7282   23.5236   25.0822 H   0  0  0  0  0  0  0  0  0  0  0  0
   16.8134   22.0242   24.7552 H   0  0  0  0  0  0  0  0  0  0  0  0
  1  2  1  0  0  0  0
  1  3  1  0  0  0  0
  1  4  1  0  0  0  0
  4  5  1  0  0  0  0
  4  6  1  0  0  0  0
  4  7  1  0  0  0  0
  7  8  1  0  0  0  0
  7  9  1  0  0  0  0
  7 10  1  0  0  0  0
 10 11  1  0  0  0  0
 10 12  1  0  0  0  0
 10 13  1  0  0  0  0
 13 14  1  0  0  0  0
 13 15  1  0  0  0  0
 13 16  1  0  0  0  0
 16 17  1  0  0  0  0
 16 18  1  0  0  0  0
 16 19  1  0  0  0  0
 19 20  1  0  0  0  0
 19 21  1  0  0  0  0
 19 22  1  0  0  0  0
  1 23  1  0  0  0  0
 23 24  1  0  0  0  0
 23 25  1  0  0  0  0
 23 26  1  0  0  0  0
M  END
> <VConfSearch Rank>
961

> <Conf_Id>
11

> <Delta U+W>
0.000

> <U+W>
21.842

> <U>
70.357

> <W>
-48.515

> <W(PB)>
-50.856

> <W(SA)>
2.341

> <Valence>
1.714

> <Coulomb>
68.480

> <VdW>
0.163

> <VdW6>
-5.268

> <VdW12>
5.431

> <Bond>
0.126

> <Angle>
0.350

> <Pdih>
1.238

> <Idih>
0.000

> <Tether>
0.000

$$$$
VeraChem MOL file


 26 25  0  0  0  0  0  0  0  0999 V2000     
   19.7797   18.5579   19.9247 N   0  3  0  0  0  0  0  0  0  0  0  0
   20.2614   18.0135   19.1914 H   0  0  0  0  0  0  0  0  0  0  0  0
   19.9657   19.5449   19.6885 H   0  0  0  0  0  0  0  0  0  0  0  0
   20.3752   18.2211   21.2815 C   0  0  0  0  0  0  0  0  0  0  0  0
   21.4617   18.2931   21.1860 H   0  0  0  0  0  0  0  0  0  0  0  0
   20.1232   17.1829   21.5114 H   0  0  0  0  0  0  0  0  0  0  0  0
   19.9117   19.1401   22.4301 C   0  0  0  0  0  0  0  0  0  0  0  0
   20.1239   20.1852   22.1685 H   0  0  0  0  0  0  0  0  0  0  0  0
   18.8249   19.0545   22.5586 H   0  0  0  0  0  0  0  0  0  0  0  0
   20.6168   18.7827   23.7573 C   0  0  0  0  0  0  0  0  0  0  0  0
   21.7050   18.8666   23.6281 H   0  0  0  0  0  0  0  0  0  0  0  0
   20.4072   17.7344   24.0122 H   0  0  0  0  0  0  0  0  0  0  0  0
   20.1620   19.6977   24.9172 C   0  0  0  0  0  0  0  0  0  0  0  0
   20.3713   20.7459   24.6623 H   0  0  0  0  0  0  0  0  0  0  0  0
   19.0740   19.6138   25.0468 H   0  0  0  0  0  0  0  0  0  0  0  0
   20.8675   19.3400   26.2444 C   0  0  0  0  0  0  0  0  0  0  0  0
   21.9563   19.4249   26.1207 H   0  0  0  0  0  0  0  0  0  0  0  0
   20.6592   18.2928   26.5051 H   0  0  0  0  0  0  0  0  0  0  0  0
   20.4108   20.2556   27.4003 C   0  0  0  0  0  0  0  0  0  0  0  0
   20.9223   19.9863   28.3335 H   0  0  0  0  0  0  0  0  0  0  0  0
   19.3300   20.1668   27.5711 H   0  0  0  0  0  0  0  0  0  0  0  0
   20.6373   21.3078   27.1837 H   0  0  0  0  0  0  0  0  0  0  0  0
   18.2842   18.2640   19.8889 C   0  0  0  0  0  0  0  0  0  0  0  0
   17.7744   18.8915   20.6227 H   0  0  0  0  0  0  0  0  0  0  0  0
   17.9010   18.4829   18.8898 H   0  0  0  0  0  0  0  0  0  0  0  0
   18.1199   17.2102   20.1240 H   0  0  0  0  0  0  0  0  0  0  0  0
  1  2  1  0  0  0  0
  1  3  1  0  0  0  0
  1  4  1  0  0  0  0
  4  5  1  0  0  0  0
  4  6  1  0  0  0  0
  4  7  1  0  0  0  0
  7  8  1  0  0  0  0
  7  9  1  0  0  0  0
  7 10  1  0  0  0  0
 10 11  1  0  0  0  0
 10 12  1  0  0  0  0
 10 13  1  0  0  0  0
 13 14  1  0  0  0  0
 13 15  1  0  0  0  0
 13 16  1  0  0  0  0
 16 17  1  0  0  0  0
 16 18  1  0  0  0  0
 16 19  1  0  0  0  0
 19 20  1  0  0  0  0
 19 21  1  0  0  0  0
 19 22  1  0  0  0  0
  1 23  1  0  0  0  0
 23 24  1  0  0  0  0
 23 25  1  0  0  0  0
 23 26  1  0  0  0  0
M  END
> <VConfSearch Rank>
962

> <Conf_Id>
102

> <Delta U+W>
0.121

> <U+W>
21.963

> <U>
70.745

> <W>
-48.782

> <W(PB)>
-51.111

> <W(SA)>
2.329

> <Valence>
1.993

> <Coulomb>
68.323

> <VdW>
0.429

> <VdW6>
-5.973

> <VdW12>
6.402

> <Bond>
0.161

> <Angle>
0.472

> <Pdih>
1.360

> <Idih>
0.000

> <Tether>
0.000

$$$$
VeraChem MOL file


 26 25  0  0  0  0  0  0  0  0999 V2000     
   17.5099   21.1848   23.6850 N   0  3  0  0  0  0  0  0  0  0  0  0
   17.1164   20.6702   24.4881 H   0  0  0  0  0  0  0  0  0  0  0  0
   16.6893   21.5142   23.1520 H   0  0  0  0  0  0  0  0  0  0  0  0
   18.3380   20.2515   22.8177 C   0  0  0  0  0  0  0  0  0  0  0  0
   18.7676   20.8409   22.0038 H   0  0  0  0  0  0  0  0  0  0  0  0
   17.6526   19.5203   22.3815 H   0  0  0  0  0  0  0  0  0  0  0  0
   19.4568   19.5025   23.5700 C   0  0  0  0  0  0  0  0  0  0  0  0
   20.1709   20.2240   23.9875 H   0  0  0  0  0  0  0  0  0  0  0  0
   19.0222   18.9531   24.4156 H   0  0  0  0  0  0  0  0  0  0  0  0
   20.2018   18.5201   22.6393 C   0  0  0  0  0  0  0  0  0  0  0  0
   20.6296   19.0728   21.7911 H   0  0  0  0  0  0  0  0  0  0  0  0
   19.4864   17.7989   22.2199 H   0  0  0  0  0  0  0  0  0  0  0  0
   21.3256   17.7615   23.3816 C   0  0  0  0  0  0  0  0  0  0  0  0
   22.0412   18.4825   23.8007 H   0  0  0  0  0  0  0  0  0  0  0  0
   20.8981   17.2091   24.2299 H   0  0  0  0  0  0  0  0  0  0  0  0
   22.0705   16.7790   22.4505 C   0  0  0  0  0  0  0  0  0  0  0  0
   22.5021   17.3272   21.6013 H   0  0  0  0  0  0  0  0  0  0  0  0
   21.3593   16.0538   22.0306 H   0  0  0  0  0  0  0  0  0  0  0  0
   23.1920   16.0236   23.1951 C   0  0  0  0  0  0  0  0  0  0  0  0
   23.9383   16.7210   23.5974 H   0  0  0  0  0  0  0  0  0  0  0  0
   23.7089   15.3312   22.5179 H   0  0  0  0  0  0  0  0  0  0  0  0
   22.7865   15.4377   24.0303 H   0  0  0  0  0  0  0  0  0  0  0  0
   18.3337   22.3780   24.1563 C   0  0  0  0  0  0  0  0  0  0  0  0
   18.7208   22.9127   23.2862 H   0  0  0  0  0  0  0  0  0  0  0  0
   17.6961   23.0424   24.7437 H   0  0  0  0  0  0  0  0  0  0  0  0
   19.1622   22.0247   24.7733 H   0  0  0  0  0  0  0  0  0  0  0  0
  1  2  1  0  0  0  0
  1  3  1  0  0  0  0
  1  4  1  0  0  0  0
  4  5  1  0  0  0  0
  4  6  1  0  0  0  0
  4  7  1  0  0  0  0
  7  8  1  0  0  0  0
  7  9  1  0  0  0  0
  7 10  1  0  0  0  0
 10 11  1  0  0  0  0
 10 12  1  0  0  0  0
 10 13  1  0  0  0  0
 13 14  1  0  0  0  0
 13 15  1  0  0  0  0
 13 16  1  0  0  0  0
 16 17  1  0  0  0  0
 16 18  1  0  0  0  0
 16 19  1  0  0  0  0
 19 20  1  0  0  0  0
 19 21  1  0  0  0  0
 19 22  1  0  0  0  0
  1 23  1  0  0  0  0
 23 24  1  0  0  0  0
 23 25  1  0  0  0  0
 23 26  1  0  0  0  0
M  END
> <VConfSearch Rank>
963

> <Conf_Id>
37

> <Delta U+W>
0.125

> <U+W>
21.967

> <U>
70.745

> <W>
-48.778

> <W(PB)>
-51.115

> <W(SA)>
2.337

> <Valence>
1.993

> <Coulomb>
68.323

> <VdW>
0.429

> <VdW6>
-5.973

> <VdW12>
6.403

> <Bond>
0.161

> <Angle>
0.472

> <Pdih>
1.360

> <Idih>
0.000

> <Tether>
0.000

$$$$
VeraChem MOL file


 26 25  0  0  0  0  0  0  0  0999 V2000     
   21.7118   21.1915   21.8669 N   0  3  0  0  0  0  0  0  0  0  0  0
   22.1470   20.7965   21.0187 H   0  0  0  0  0  0  0  0  0  0  0  0
   22.4682   21.2375   22.5673 H   0  0  0  0  0  0  0  0  0  0  0  0
   20.6010   20.2840   22.3558 C   0  0  0  0  0  0  0  0  0  0  0  0
   19.8281   20.2543   21.5836 H   0  0  0  0  0  0  0  0  0  0  0  0
   20.1739   20.7360   23.2540 H   0  0  0  0  0  0  0  0  0  0  0  0
   21.0776   18.8521   22.6672 C   0  0  0  0  0  0  0  0  0  0  0  0
   21.5466   18.4282   21.7693 H   0  0  0  0  0  0  0  0  0  0  0  0
   21.8539   18.8812   23.4433 H   0  0  0  0  0  0  0  0  0  0  0  0
   19.9267   17.9214   23.1178 C   0  0  0  0  0  0  0  0  0  0  0  0
   20.3251   16.9027   23.2098 H   0  0  0  0  0  0  0  0  0  0  0  0
   19.1569   17.8852   22.3345 H   0  0  0  0  0  0  0  0  0  0  0  0
   19.2862   18.3527   24.4619 C   0  0  0  0  0  0  0  0  0  0  0  0
   20.0524   18.3689   25.2492 H   0  0  0  0  0  0  0  0  0  0  0  0
   18.9095   19.3805   24.3766 H   0  0  0  0  0  0  0  0  0  0  0  0
   18.1119   17.4458   24.9040 C   0  0  0  0  0  0  0  0  0  0  0  0
   17.3368   17.4348   24.1249 H   0  0  0  0  0  0  0  0  0  0  0  0
   17.6440   17.8860   25.7957 H   0  0  0  0  0  0  0  0  0  0  0  0
   18.5403   15.9973   25.2324 C   0  0  0  0  0  0  0  0  0  0  0  0
   18.8992   15.4697   24.3402 H   0  0  0  0  0  0  0  0  0  0  0  0
   17.6916   15.4274   25.6321 H   0  0  0  0  0  0  0  0  0  0  0  0
   19.3384   15.9824   25.9859 H   0  0  0  0  0  0  0  0  0  0  0  0
   21.1589   22.5818   21.5857 C   0  0  0  0  0  0  0  0  0  0  0  0
   20.7343   22.9921   22.5045 H   0  0  0  0  0  0  0  0  0  0  0  0
   21.9688   23.2250   21.2343 H   0  0  0  0  0  0  0  0  0  0  0  0
   20.3843   22.5119   20.8188 H   0  0  0  0  0  0  0  0  0  0  0  0
  1  2  1  0  0  0  0
  1  3  1  0  0  0  0
  1  4  1  0  0  0  0
  4  5  1  0  0  0  0
  4  6  1  0  0  0  0
  4  7  1  0  0  0  0
  7  8  1  0  0  0  0
  7  9  1  0  0  0  0
  7 10  1  0  0  0  0
 10 11  1  0  0  0  0
 10 12  1  0  0  0  0
 10 13  1  0  0  0  0
 13 14  1  0  0  0  0
 13 15  1  0  0  0  0
 13 16  1  0  0  0  0
 16 17  1  0  0  0  0
 16 18  1  0  0  0  0
 16 19  1  0  0  0  0
 19 20  1  0  0  0  0
 19 21  1  0  0  0  0
 19 22  1  0  0  0  0
  1 23  1  0  0  0  0
 23 24  1  0  0  0  0
 23 25  1  0  0  0  0
 23 26  1  0  0  0  0
M  END
> <VConfSearch Rank>
964

> <Conf_Id>
137

> <Delta U+W>
1.038

> <U+W>
22.880

> <U>
71.810

> <W>
-48.930

> <W(PB)>
-51.257

> <W(SA)>
2.327

> <Valence>
2.568

> <Coulomb>
68.877

> <VdW>
0.364

> <VdW6>
-6.470

> <VdW12>
6.834

> <Bond>
0.191

> <Angle>
0.752

> <Pdih>
1.626

> <Idih>
0.000

> <Tether>
0.000

$$$$
VeraChem MOL file


 26 25  0  0  0  0  0  0  0  0999 V2000     
   20.6968   18.9558   20.3872 N   0  3  0  0  0  0  0  0  0  0  0  0
   20.1063   18.1105   20.3479 H   0  0  0  0  0  0  0  0  0  0  0  0
   21.6617   18.6113   20.5094 H   0  0  0  0  0  0  0  0  0  0  0  0
   20.2965   19.8193   21.5666 C   0  0  0  0  0  0  0  0  0  0  0  0
   19.2697   20.1558   21.4027 H   0  0  0  0  0  0  0  0  0  0  0  0
   20.9487   20.6962   21.5765 H   0  0  0  0  0  0  0  0  0  0  0  0
   20.3921   19.0874   22.9176 C   0  0  0  0  0  0  0  0  0  0  0  0
   19.7483   18.1994   22.8887 H   0  0  0  0  0  0  0  0  0  0  0  0
   21.4216   18.7372   23.0705 H   0  0  0  0  0  0  0  0  0  0  0  0
   19.9765   20.0098   24.0880 C   0  0  0  0  0  0  0  0  0  0  0  0
   18.9303   20.3211   23.9610 H   0  0  0  0  0  0  0  0  0  0  0  0
   20.5779   20.9288   24.0484 H   0  0  0  0  0  0  0  0  0  0  0  0
   20.1599   19.3630   25.4832 C   0  0  0  0  0  0  0  0  0  0  0  0
   21.2098   19.0676   25.6174 H   0  0  0  0  0  0  0  0  0  0  0  0
   19.9543   20.1237   26.2490 H   0  0  0  0  0  0  0  0  0  0  0  0
   19.2396   18.1433   25.7272 C   0  0  0  0  0  0  0  0  0  0  0  0
   19.4819   17.3376   25.0217 H   0  0  0  0  0  0  0  0  0  0  0  0
   18.1934   18.4247   25.5426 H   0  0  0  0  0  0  0  0  0  0  0  0
   19.3775   17.6051   27.1674 C   0  0  0  0  0  0  0  0  0  0  0  0
   20.4080   17.2871   27.3729 H   0  0  0  0  0  0  0  0  0  0  0  0
   18.7208   16.7392   27.3223 H   0  0  0  0  0  0  0  0  0  0  0  0
   19.1030   18.3714   27.9040 H   0  0  0  0  0  0  0  0  0  0  0  0
   20.5740   19.7533   19.0961 C   0  0  0  0  0  0  0  0  0  0  0  0
   21.2319   20.6236   19.1476 H   0  0  0  0  0  0  0  0  0  0  0  0
   20.8651   19.1201   18.2550 H   0  0  0  0  0  0  0  0  0  0  0  0
   19.5388   20.0786   18.9719 H   0  0  0  0  0  0  0  0  0  0  0  0
  1  2  1  0  0  0  0
  1  3  1  0  0  0  0
  1  4  1  0  0  0  0
  4  5  1  0  0  0  0
  4  6  1  0  0  0  0
  4  7  1  0  0  0  0
  7  8  1  0  0  0  0
  7  9  1  0  0  0  0
  7 10  1  0  0  0  0
 10 11  1  0  0  0  0
 10 12  1  0  0  0  0
 10 13  1  0  0  0  0
 13 14  1  0  0  0  0
 13 15  1  0  0  0  0
 13 16  1  0  0  0  0
 16 17  1  0  0  0  0
 16 18  1  0  0  0  0
 16 19  1  0  0  0  0
 19 20  1  0  0  0  0
 19 21  1  0  0  0  0
 19 22  1  0  0  0  0
  1 23  1  0  0  0  0
 23 24  1  0  0  0  0
 23 25  1  0  0  0  0
 23 26  1  0  0  0  0
M  END
> <VConfSearch Rank>
965

> <Conf_Id>
35

> <Delta U+W>
0.670

> <U+W>
22.512

> <U>
71.348

> <W>
-48.837

> <W(PB)>
-51.150

> <W(SA)>
2.313

> <Valence>
2.262

> <Coulomb>
68.807

> <VdW>
0.280

> <VdW6>
-5.915

> <VdW12>
6.195

> <Bond>
0.164

> <Angle>
0.622

> <Pdih>
1.475

> <Idih>
0.000

> <Tether>
0.000

$$$$
VeraChem MOL file


 26 25  0  0  0  0  0  0  0  0999 V2000     
   18.2435   17.4019   21.5814 N   0  3  0  0  0  0  0  0  0  0  0  0
   18.9278   17.2882   20.8174 H   0  0  0  0  0  0  0  0  0  0  0  0
   17.7319   18.2714   21.3645 H   0  0  0  0  0  0  0  0  0  0  0  0
   18.9605   17.5343   22.9101 C   0  0  0  0  0  0  0  0  0  0  0  0
   19.4942   16.5991   23.0974 H   0  0  0  0  0  0  0  0  0  0  0  0
   18.2036   17.6606   23.6883 H   0  0  0  0  0  0  0  0  0  0  0  0
   19.9497   18.7130   22.9536 C   0  0  0  0  0  0  0  0  0  0  0  0
   20.6984   18.5901   22.1597 H   0  0  0  0  0  0  0  0  0  0  0  0
   19.4060   19.6431   22.7456 H   0  0  0  0  0  0  0  0  0  0  0  0
   20.6566   18.8040   24.3267 C   0  0  0  0  0  0  0  0  0  0  0  0
   21.1248   17.8355   24.5514 H   0  0  0  0  0  0  0  0  0  0  0  0
   19.9119   18.9762   25.1162 H   0  0  0  0  0  0  0  0  0  0  0  0
   21.7461   19.9029   24.3922 C   0  0  0  0  0  0  0  0  0  0  0  0
   22.2697   19.8165   25.3544 H   0  0  0  0  0  0  0  0  0  0  0  0
   22.5004   19.7208   23.6143 H   0  0  0  0  0  0  0  0  0  0  0  0
   21.1877   21.3390   24.2515 C   0  0  0  0  0  0  0  0  0  0  0  0
   20.3965   21.5044   24.9962 H   0  0  0  0  0  0  0  0  0  0  0  0
   20.7280   21.4726   23.2633 H   0  0  0  0  0  0  0  0  0  0  0  0
   22.2933   22.4004   24.4362 C   0  0  0  0  0  0  0  0  0  0  0  0
   22.7506   22.3260   25.4315 H   0  0  0  0  0  0  0  0  0  0  0  0
   21.8810   23.4122   24.3305 H   0  0  0  0  0  0  0  0  0  0  0  0
   23.0857   22.2796   23.6860 H   0  0  0  0  0  0  0  0  0  0  0  0
   17.2887   16.2169   21.6237 C   0  0  0  0  0  0  0  0  0  0  0  0
   16.5547   16.3753   22.4169 H   0  0  0  0  0  0  0  0  0  0  0  0
   16.7792   16.1328   20.6612 H   0  0  0  0  0  0  0  0  0  0  0  0
   17.8564   15.3050   21.8214 H   0  0  0  0  0  0  0  0  0  0  0  0
  1  2  1  0  0  0  0
  1  3  1  0  0  0  0
  1  4  1  0  0  0  0
  4  5  1  0  0  0  0
  4  6  1  0  0  0  0
  4  7  1  0  0  0  0
  7  8  1  0  0  0  0
  7  9  1  0  0  0  0
  7 10  1  0  0  0  0
 10 11  1  0  0  0  0
 10 12  1  0  0  0  0
 10 13  1  0  0  0  0
 13 14  1  0  0  0  0
 13 15  1  0  0  0  0
 13 16  1  0  0  0  0
 16 17  1  0  0  0  0
 16 18  1  0  0  0  0
 16 19  1  0  0  0  0
 19 20  1  0  0  0  0
 19 21  1  0  0  0  0
 19 22  1  0  0  0  0
  1 23  1  0  0  0  0
 23 24  1  0  0  0  0
 23 25  1  0  0  0  0
 23 26  1  0  0  0  0
M  END
> <VConfSearch Rank>
966

> <Conf_Id>
36

> <Delta U+W>
0.662

> <U+W>
22.504

> <U>
71.348

> <W>
-48.844

> <W(PB)>
-51.157

> <W(SA)>
2.313

> <Valence>
2.262

> <Coulomb>
68.807

> <VdW>
0.280

> <VdW6>
-5.916

> <VdW12>
6.195

> <Bond>
0.164

> <Angle>
0.622

> <Pdih>
1.475

> <Idih>
0.000

> <Tether>
0.000

$$$$
VeraChem MOL file


 26 25  0  0  0  0  0  0  0  0999 V2000     
   21.5580   20.6718   21.1313 N   0  3  0  0  0  0  0  0  0  0  0  0
   20.7386   21.2163   20.8198 H   0  0  0  0  0  0  0  0  0  0  0  0
   21.8706   20.1466   20.2999 H   0  0  0  0  0  0  0  0  0  0  0  0
   21.1601   19.7138   22.2360 C   0  0  0  0  0  0  0  0  0  0  0  0
   20.8323   20.3097   23.0909 H   0  0  0  0  0  0  0  0  0  0  0  0
   22.0502   19.1511   22.5286 H   0  0  0  0  0  0  0  0  0  0  0  0
   20.0427   18.7371   21.8216 C   0  0  0  0  0  0  0  0  0  0  0  0
   19.1489   19.3025   21.5259 H   0  0  0  0  0  0  0  0  0  0  0  0
   20.3672   18.1757   20.9353 H   0  0  0  0  0  0  0  0  0  0  0  0
   19.6773   17.7365   22.9435 C   0  0  0  0  0  0  0  0  0  0  0  0
   20.5672   17.1530   23.2181 H   0  0  0  0  0  0  0  0  0  0  0  0
   18.9448   17.0181   22.5498 H   0  0  0  0  0  0  0  0  0  0  0  0
   19.0926   18.4212   24.2025 C   0  0  0  0  0  0  0  0  0  0  0  0
   19.8334   19.1064   24.6358 H   0  0  0  0  0  0  0  0  0  0  0  0
   18.2231   19.0303   23.9190 H   0  0  0  0  0  0  0  0  0  0  0  0
   18.6703   17.3901   25.2729 C   0  0  0  0  0  0  0  0  0  0  0  0
   19.5363   16.7772   25.5597 H   0  0  0  0  0  0  0  0  0  0  0  0
   17.9218   16.7036   24.8527 H   0  0  0  0  0  0  0  0  0  0  0  0
   18.0888   18.0741   26.5287 C   0  0  0  0  0  0  0  0  0  0  0  0
   18.8268   18.7414   26.9926 H   0  0  0  0  0  0  0  0  0  0  0  0
   17.7945   17.3261   27.2763 H   0  0  0  0  0  0  0  0  0  0  0  0
   17.2001   18.6682   26.2790 H   0  0  0  0  0  0  0  0  0  0  0  0
   22.6604   21.5997   21.6225 C   0  0  0  0  0  0  0  0  0  0  0  0
   23.5277   21.0037   21.9151 H   0  0  0  0  0  0  0  0  0  0  0  0
   22.9377   22.2841   20.8176 H   0  0  0  0  0  0  0  0  0  0  0  0
   22.2955   22.1683   22.4807 H   0  0  0  0  0  0  0  0  0  0  0  0
  1  2  1  0  0  0  0
  1  3  1  0  0  0  0
  1  4  1  0  0  0  0
  4  5  1  0  0  0  0
  4  6  1  0  0  0  0
  4  7  1  0  0  0  0
  7  8  1  0  0  0  0
  7  9  1  0  0  0  0
  7 10  1  0  0  0  0
 10 11  1  0  0  0  0
 10 12  1  0  0  0  0
 10 13  1  0  0  0  0
 13 14  1  0  0  0  0
 13 15  1  0  0  0  0
 13 16  1  0  0  0  0
 16 17  1  0  0  0  0
 16 18  1  0  0  0  0
 16 19  1  0  0  0  0
 19 20  1  0  0  0  0
 19 21  1  0  0  0  0
 19 22  1  0  0  0  0
  1 23  1  0  0  0  0
 23 24  1  0  0  0  0
 23 25  1  0  0  0  0
 23 26  1  0  0  0  0
M  END
> <VConfSearch Rank>
967

> <Conf_Id>
46

> <Delta U+W>
0.496

> <U+W>
22.338

> <U>
71.138

> <W>
-48.799

> <W(PB)>
-51.136

> <W(SA)>
2.337

> <Valence>
2.016

> <Coulomb>
68.932

> <VdW>
0.190

> <VdW6>
-5.902

> <VdW12>
6.092

> <Bond>
0.149

> <Angle>
0.477

> <Pdih>
1.390

> <Idih>
0.000

> <Tether>
0.000

$$$$
VeraChem MOL file


 26 25  0  0  0  0  0  0  0  0999 V2000     
   17.6295   20.6836   24.3446 N   0  3  0  0  0  0  0  0  0  0  0  0
   17.7386   21.7095   24.3668 H   0  0  0  0  0  0  0  0  0  0  0  0
   17.7121   20.3776   25.3266 H   0  0  0  0  0  0  0  0  0  0  0  0
   18.7278   20.0590   23.5079 C   0  0  0  0  0  0  0  0  0  0  0  0
   18.6115   20.4157   22.4814 H   0  0  0  0  0  0  0  0  0  0  0  0
   18.5774   18.9769   23.5161 H   0  0  0  0  0  0  0  0  0  0  0  0
   20.1440   20.3927   24.0151 C   0  0  0  0  0  0  0  0  0  0  0  0
   20.2671   21.4836   24.0438 H   0  0  0  0  0  0  0  0  0  0  0  0
   20.2604   20.0358   25.0471 H   0  0  0  0  0  0  0  0  0  0  0  0
   21.2555   19.7855   23.1267 C   0  0  0  0  0  0  0  0  0  0  0  0
   22.2301   20.1376   23.4921 H   0  0  0  0  0  0  0  0  0  0  0  0
   21.1531   20.1658   22.1007 H   0  0  0  0  0  0  0  0  0  0  0  0
   21.2458   18.2377   23.1134 C   0  0  0  0  0  0  0  0  0  0  0  0
   21.3148   17.8611   24.1433 H   0  0  0  0  0  0  0  0  0  0  0  0
   20.2950   17.8714   22.7036 H   0  0  0  0  0  0  0  0  0  0  0  0
   22.4115   17.6635   22.2775 C   0  0  0  0  0  0  0  0  0  0  0  0
   23.3696   18.0168   22.6840 H   0  0  0  0  0  0  0  0  0  0  0  0
   22.3480   18.0378   21.2460 H   0  0  0  0  0  0  0  0  0  0  0  0
   22.4000   16.1200   22.2636 C   0  0  0  0  0  0  0  0  0  0  0  0
   22.4963   15.7151   23.2794 H   0  0  0  0  0  0  0  0  0  0  0  0
   23.2347   15.7314   21.6659 H   0  0  0  0  0  0  0  0  0  0  0  0
   21.4677   15.7358   21.8294 H   0  0  0  0  0  0  0  0  0  0  0  0
   16.2680   20.3034   23.7794 C   0  0  0  0  0  0  0  0  0  0  0  0
   15.4863   20.7596   24.3907 H   0  0  0  0  0  0  0  0  0  0  0  0
   16.1916   20.6661   22.7520 H   0  0  0  0  0  0  0  0  0  0  0  0
   16.1627   19.2164   23.7969 H   0  0  0  0  0  0  0  0  0  0  0  0
  1  2  1  0  0  0  0
  1  3  1  0  0  0  0
  1  4  1  0  0  0  0
  4  5  1  0  0  0  0
  4  6  1  0  0  0  0
  4  7  1  0  0  0  0
  7  8  1  0  0  0  0
  7  9  1  0  0  0  0
  7 10  1  0  0  0  0
 10 11  1  0  0  0  0
 10 12  1  0  0  0  0
 10 13  1  0  0  0  0
 13 14  1  0  0  0  0
 13 15  1  0  0  0  0
 13 16  1  0  0  0  0
 16 17  1  0  0  0  0
 16 18  1  0  0  0  0
 16 19  1  0  0  0  0
 19 20  1  0  0  0  0
 19 21  1  0  0  0  0
 19 22  1  0  0  0  0
  1 23  1  0  0  0  0
 23 24  1  0  0  0  0
 23 25  1  0  0  0  0
 23 26  1  0  0  0  0
M  END
> <VConfSearch Rank>
968

> <Conf_Id>
45

> <Delta U+W>
0.471

> <U+W>
22.313

> <U>
71.138

> <W>
-48.825

> <W(PB)>
-51.169

> <W(SA)>
2.344

> <Valence>
2.016

> <Coulomb>
68.932

> <VdW>
0.190

> <VdW6>
-5.902

> <VdW12>
6.092

> <Bond>
0.149

> <Angle>
0.477

> <Pdih>
1.390

> <Idih>
0.000

> <Tether>
0.000

$$$$
VeraChem MOL file


 26 25  0  0  0  0  0  0  0  0999 V2000     
   22.0232   17.4698   22.7053 N   0  3  0  0  0  0  0  0  0  0  0  0
   21.1401   17.0367   22.3958 H   0  0  0  0  0  0  0  0  0  0  0  0
   22.0818   17.2850   23.7187 H   0  0  0  0  0  0  0  0  0  0  0  0
   21.9881   18.9640   22.4484 C   0  0  0  0  0  0  0  0  0  0  0  0
   21.9168   19.1190   21.3689 H   0  0  0  0  0  0  0  0  0  0  0  0
   22.9390   19.3801   22.7909 H   0  0  0  0  0  0  0  0  0  0  0  0
   20.8275   19.6919   23.1548 C   0  0  0  0  0  0  0  0  0  0  0  0
   20.9094   19.5315   24.2372 H   0  0  0  0  0  0  0  0  0  0  0  0
   20.9414   20.7710   22.9867 H   0  0  0  0  0  0  0  0  0  0  0  0
   19.4387   19.2358   22.6413 C   0  0  0  0  0  0  0  0  0  0  0  0
   19.2749   18.1774   22.8842 H   0  0  0  0  0  0  0  0  0  0  0  0
   19.4226   19.3080   21.5448 H   0  0  0  0  0  0  0  0  0  0  0  0
   18.2663   20.0758   23.2052 C   0  0  0  0  0  0  0  0  0  0  0  0
   18.4116   21.1334   22.9447 H   0  0  0  0  0  0  0  0  0  0  0  0
   17.3399   19.7607   22.7053 H   0  0  0  0  0  0  0  0  0  0  0  0
   18.0846   19.9357   24.7354 C   0  0  0  0  0  0  0  0  0  0  0  0
   18.9712   20.3169   25.2593 H   0  0  0  0  0  0  0  0  0  0  0  0
   17.9885   18.8740   25.0023 H   0  0  0  0  0  0  0  0  0  0  0  0
   16.8409   20.7025   25.2336 C   0  0  0  0  0  0  0  0  0  0  0  0
   16.9211   21.7739   25.0077 H   0  0  0  0  0  0  0  0  0  0  0  0
   16.7287   20.5950   26.3203 H   0  0  0  0  0  0  0  0  0  0  0  0
   15.9260   20.3212   24.7617 H   0  0  0  0  0  0  0  0  0  0  0  0
   23.2068   16.8465   21.9786 C   0  0  0  0  0  0  0  0  0  0  0  0
   24.1313   17.2981   22.3449 H   0  0  0  0  0  0  0  0  0  0  0  0
   23.2198   15.7714   22.1713 H   0  0  0  0  0  0  0  0  0  0  0  0
   23.1058   17.0278   20.9063 H   0  0  0  0  0  0  0  0  0  0  0  0
  1  2  1  0  0  0  0
  1  3  1  0  0  0  0
  1  4  1  0  0  0  0
  4  5  1  0  0  0  0
  4  6  1  0  0  0  0
  4  7  1  0  0  0  0
  7  8  1  0  0  0  0
  7  9  1  0  0  0  0
  7 10  1  0  0  0  0
 10 11  1  0  0  0  0
 10 12  1  0  0  0  0
 10 13  1  0  0  0  0
 13 14  1  0  0  0  0
 13 15  1  0  0  0  0
 13 16  1  0  0  0  0
 16 17  1  0  0  0  0
 16 18  1  0  0  0  0
 16 19  1  0  0  0  0
 19 20  1  0  0  0  0
 19 21  1  0  0  0  0
 19 22  1  0  0  0  0
  1 23  1  0  0  0  0
 23 24  1  0  0  0  0
 23 25  1  0  0  0  0
 23 26  1  0  0  0  0
M  END
> <VConfSearch Rank>
969

> <Conf_Id>
143

> <Delta U+W>
0.915

> <U+W>
22.757

> <U>
71.994

> <W>
-49.237

> <W(PB)>
-51.537

> <W(SA)>
2.300

> <Valence>
2.376

> <Coulomb>
69.315

> <VdW>
0.303

> <VdW6>
-6.508

> <VdW12>
6.810

> <Bond>
0.182

> <Angle>
0.660

> <Pdih>
1.534

> <Idih>
0.000

> <Tether>
0.000

$$$$
VeraChem MOL file


 26 25  0  0  0  0  0  0  0  0999 V2000     
   19.7125   19.0106   20.7225 N   0  3  0  0  0  0  0  0  0  0  0  0
   20.7401   19.0683   20.7827 H   0  0  0  0  0  0  0  0  0  0  0  0
   19.3818   19.9876   20.6972 H   0  0  0  0  0  0  0  0  0  0  0  0
   19.1570   18.3034   21.9438 C   0  0  0  0  0  0  0  0  0  0  0  0
   19.5354   17.2780   21.9423 H   0  0  0  0  0  0  0  0  0  0  0  0
   18.0701   18.2658   21.8348 H   0  0  0  0  0  0  0  0  0  0  0  0
   19.5116   18.9855   23.2800 C   0  0  0  0  0  0  0  0  0  0  0  0
   19.1571   20.0247   23.2676 H   0  0  0  0  0  0  0  0  0  0  0  0
   18.9611   18.4689   24.0757 H   0  0  0  0  0  0  0  0  0  0  0  0
   21.0277   18.9412   23.5910 C   0  0  0  0  0  0  0  0  0  0  0  0
   21.5873   19.3636   22.7462 H   0  0  0  0  0  0  0  0  0  0  0  0
   21.3506   17.8945   23.6781 H   0  0  0  0  0  0  0  0  0  0  0  0
   21.4410   19.7151   24.8699 C   0  0  0  0  0  0  0  0  0  0  0  0
   22.5343   19.6470   24.9578 H   0  0  0  0  0  0  0  0  0  0  0  0
   21.2212   20.7851   24.7516 H   0  0  0  0  0  0  0  0  0  0  0  0
   20.8181   19.1818   26.1861 C   0  0  0  0  0  0  0  0  0  0  0  0
   21.5597   19.2841   26.9908 H   0  0  0  0  0  0  0  0  0  0  0  0
   20.6107   18.1058   26.1028 H   0  0  0  0  0  0  0  0  0  0  0  0
   19.5426   19.9445   26.6152 C   0  0  0  0  0  0  0  0  0  0  0  0
   18.7453   19.8704   25.8676 H   0  0  0  0  0  0  0  0  0  0  0  0
   19.7578   21.0091   26.7741 H   0  0  0  0  0  0  0  0  0  0  0  0
   19.1525   19.5401   27.5582 H   0  0  0  0  0  0  0  0  0  0  0  0
   19.2929   18.2710   19.4598 C   0  0  0  0  0  0  0  0  0  0  0  0
   18.2025   18.2504   19.4013 H   0  0  0  0  0  0  0  0  0  0  0  0
   19.6993   18.7900   18.5888 H   0  0  0  0  0  0  0  0  0  0  0  0
   19.6810   17.2507   19.4955 H   0  0  0  0  0  0  0  0  0  0  0  0
  1  2  1  0  0  0  0
  1  3  1  0  0  0  0
  1  4  1  0  0  0  0
  4  5  1  0  0  0  0
  4  6  1  0  0  0  0
  4  7  1  0  0  0  0
  7  8  1  0  0  0  0
  7  9  1  0  0  0  0
  7 10  1  0  0  0  0
 10 11  1  0  0  0  0
 10 12  1  0  0  0  0
 10 13  1  0  0  0  0
 13 14  1  0  0  0  0
 13 15  1  0  0  0  0
 13 16  1  0  0  0  0
 16 17  1  0  0  0  0
 16 18  1  0  0  0  0
 16 19  1  0  0  0  0
 19 20  1  0  0  0  0
 19 21  1  0  0  0  0
 19 22  1  0  0  0  0
  1 23  1  0  0  0  0
 23 24  1  0  0  0  0
 23 25  1  0  0  0  0
 23 26  1  0  0  0  0
M  END
> <VConfSearch Rank>
970

> <Conf_Id>
76

> <Delta U+W>
3.468

> <U+W>
25.310

> <U>
74.594

> <W>
-49.283

> <W(PB)>
-51.537

> <W(SA)>
2.253

> <Valence>
4.886

> <Coulomb>
69.332

> <VdW>
0.376

> <VdW6>
-7.329

> <VdW12>
7.705

> <Bond>
0.232

> <Angle>
1.251

> <Pdih>
3.403

> <Idih>
0.000

> <Tether>
0.000

$$$$
VeraChem MOL file


 26 25  0  0  0  0  0  0  0  0999 V2000     
   17.3797   19.1735   22.9649 N   0  3  0  0  0  0  0  0  0  0  0  0
   17.5051   18.2644   22.4933 H   0  0  0  0  0  0  0  0  0  0  0  0
   17.2985   19.8679   22.2058 H   0  0  0  0  0  0  0  0  0  0  0  0
   18.5838   19.4843   23.8312 C   0  0  0  0  0  0  0  0  0  0  0  0
   18.6378   18.7246   24.6150 H   0  0  0  0  0  0  0  0  0  0  0  0
   18.4151   20.4552   24.3038 H   0  0  0  0  0  0  0  0  0  0  0  0
   19.9077   19.5132   23.0463 C   0  0  0  0  0  0  0  0  0  0  0  0
   20.0563   18.5451   22.5551 H   0  0  0  0  0  0  0  0  0  0  0  0
   19.8406   20.2664   22.2500 H   0  0  0  0  0  0  0  0  0  0  0  0
   21.1034   19.8447   23.9715 C   0  0  0  0  0  0  0  0  0  0  0  0
   21.1495   19.1336   24.8079 H   0  0  0  0  0  0  0  0  0  0  0  0
   20.9228   20.8308   24.4219 H   0  0  0  0  0  0  0  0  0  0  0  0
   22.4662   19.8856   23.2315 C   0  0  0  0  0  0  0  0  0  0  0  0
   22.3247   20.1974   22.1875 H   0  0  0  0  0  0  0  0  0  0  0  0
   23.0822   20.6700   23.6928 H   0  0  0  0  0  0  0  0  0  0  0  0
   23.2760   18.5648   23.2880 C   0  0  0  0  0  0  0  0  0  0  0  0
   23.5036   18.3165   24.3342 H   0  0  0  0  0  0  0  0  0  0  0  0
   24.2456   18.7298   22.7976 H   0  0  0  0  0  0  0  0  0  0  0  0
   22.5805   17.3608   22.6158 C   0  0  0  0  0  0  0  0  0  0  0  0
   22.2794   17.5998   21.5877 H   0  0  0  0  0  0  0  0  0  0  0  0
   21.6919   17.0487   23.1781 H   0  0  0  0  0  0  0  0  0  0  0  0
   23.2600   16.4997   22.5746 H   0  0  0  0  0  0  0  0  0  0  0  0
   16.1177   19.1635   23.8164 C   0  0  0  0  0  0  0  0  0  0  0  0
   16.2132   18.3995   24.5911 H   0  0  0  0  0  0  0  0  0  0  0  0
   15.9883   20.1448   24.2782 H   0  0  0  0  0  0  0  0  0  0  0  0
   15.2583   18.9388   23.1807 H   0  0  0  0  0  0  0  0  0  0  0  0
  1  2  1  0  0  0  0
  1  3  1  0  0  0  0
  1  4  1  0  0  0  0
  4  5  1  0  0  0  0
  4  6  1  0  0  0  0
  4  7  1  0  0  0  0
  7  8  1  0  0  0  0
  7  9  1  0  0  0  0
  7 10  1  0  0  0  0
 10 11  1  0  0  0  0
 10 12  1  0  0  0  0
 10 13  1  0  0  0  0
 13 14  1  0  0  0  0
 13 15  1  0  0  0  0
 13 16  1  0  0  0  0
 16 17  1  0  0  0  0
 16 18  1  0  0  0  0
 16 19  1  0  0  0  0
 19 20  1  0  0  0  0
 19 21  1  0  0  0  0
 19 22  1  0  0  0  0
  1 23  1  0  0  0  0
 23 24  1  0  0  0  0
 23 25  1  0  0  0  0
 23 26  1  0  0  0  0
M  END
> <VConfSearch Rank>
971

> <Conf_Id>
123

> <Delta U+W>
3.101

> <U+W>
24.943

> <U>
74.070

> <W>
-49.127

> <W(PB)>
-51.421

> <W(SA)>
2.295

> <Valence>
4.690

> <Coulomb>
69.115

> <VdW>
0.266

> <VdW6>
-6.809

> <VdW12>
7.075

> <Bond>
0.212

> <Angle>
1.133

> <Pdih>
3.345

> <Idih>
0.000

> <Tether>
0.000

$$$$
VeraChem MOL file


 26 25  0  0  0  0  0  0  0  0999 V2000     
   17.9897   17.7857   22.4631 N   0  3  0  0  0  0  0  0  0  0  0  0
   17.2131   18.4330   22.6691 H   0  0  0  0  0  0  0  0  0  0  0  0
   18.2179   17.3329   23.3609 H   0  0  0  0  0  0  0  0  0  0  0  0
   19.1898   18.5574   21.9491 C   0  0  0  0  0  0  0  0  0  0  0  0
   18.9034   19.0177   21.0001 H   0  0  0  0  0  0  0  0  0  0  0  0
   19.9921   17.8418   21.7527 H   0  0  0  0  0  0  0  0  0  0  0  0
   19.6935   19.6486   22.9143 C   0  0  0  0  0  0  0  0  0  0  0  0
   20.4826   20.2155   22.4078 H   0  0  0  0  0  0  0  0  0  0  0  0
   18.8826   20.3618   23.1133 H   0  0  0  0  0  0  0  0  0  0  0  0
   20.2233   19.0666   24.2498 C   0  0  0  0  0  0  0  0  0  0  0  0
   20.9676   18.2816   24.0565 H   0  0  0  0  0  0  0  0  0  0  0  0
   19.3912   18.5754   24.7715 H   0  0  0  0  0  0  0  0  0  0  0  0
   20.8190   20.1418   25.1961 C   0  0  0  0  0  0  0  0  0  0  0  0
   20.3270   21.1103   25.0314 H   0  0  0  0  0  0  0  0  0  0  0  0
   20.5767   19.8598   26.2302 H   0  0  0  0  0  0  0  0  0  0  0  0
   22.3582   20.3034   25.1064 C   0  0  0  0  0  0  0  0  0  0  0  0
   22.8444   19.3547   25.3737 H   0  0  0  0  0  0  0  0  0  0  0  0
   22.6769   21.0319   25.8650 H   0  0  0  0  0  0  0  0  0  0  0  0
   22.8708   20.7702   23.7262 C   0  0  0  0  0  0  0  0  0  0  0  0
   22.3611   21.6872   23.4034 H   0  0  0  0  0  0  0  0  0  0  0  0
   22.7196   19.9976   22.9623 H   0  0  0  0  0  0  0  0  0  0  0  0
   23.9470   20.9820   23.7686 H   0  0  0  0  0  0  0  0  0  0  0  0
   17.5622   16.7473   21.4352 C   0  0  0  0  0  0  0  0  0  0  0  0
   18.3889   16.0559   21.2579 H   0  0  0  0  0  0  0  0  0  0  0  0
   16.6984   16.1990   21.8178 H   0  0  0  0  0  0  0  0  0  0  0  0
   17.2957   17.2522   20.5042 H   0  0  0  0  0  0  0  0  0  0  0  0
  1  2  1  0  0  0  0
  1  3  1  0  0  0  0
  1  4  1  0  0  0  0
  4  5  1  0  0  0  0
  4  6  1  0  0  0  0
  4  7  1  0  0  0  0
  7  8  1  0  0  0  0
  7  9  1  0  0  0  0
  7 10  1  0  0  0  0
 10 11  1  0  0  0  0
 10 12  1  0  0  0  0
 10 13  1  0  0  0  0
 13 14  1  0  0  0  0
 13 15  1  0  0  0  0
 13 16  1  0  0  0  0
 16 17  1  0  0  0  0
 16 18  1  0  0  0  0
 16 19  1  0  0  0  0
 19 20  1  0  0  0  0
 19 21  1  0  0  0  0
 19 22  1  0  0  0  0
  1 23  1  0  0  0  0
 23 24  1  0  0  0  0
 23 25  1  0  0  0  0
 23 26  1  0  0  0  0
M  END
> <VConfSearch Rank>
972

> <Conf_Id>
111

> <Delta U+W>
3.383

> <U+W>
25.225

> <U>
74.516

> <W>
-49.292

> <W(PB)>
-51.558

> <W(SA)>
2.266

> <Valence>
4.842

> <Coulomb>
69.333

> <VdW>
0.342

> <VdW6>
-7.369

> <VdW12>
7.711

> <Bond>
0.232

> <Angle>
1.153

> <Pdih>
3.457

> <Idih>
0.000

> <Tether>
0.000

$$$$
VeraChem MOL file


 26 25  0  0  0  0  0  0  0  0999 V2000     
   17.6490   18.9360   23.0608 N   0  3  0  0  0  0  0  0  0  0  0  0
   17.2692   19.2103   22.1415 H   0  0  0  0  0  0  0  0  0  0  0  0
   18.1306   19.7729   23.4224 H   0  0  0  0  0  0  0  0  0  0  0  0
   18.6388   17.7992   22.8979 C   0  0  0  0  0  0  0  0  0  0  0  0
   18.0926   16.9386   22.5032 H   0  0  0  0  0  0  0  0  0  0  0  0
   19.0151   17.5357   23.8891 H   0  0  0  0  0  0  0  0  0  0  0  0
   19.8198   18.1289   21.9615 C   0  0  0  0  0  0  0  0  0  0  0  0
   20.4539   17.2373   21.8679 H   0  0  0  0  0  0  0  0  0  0  0  0
   19.4322   18.3346   20.9549 H   0  0  0  0  0  0  0  0  0  0  0  0
   20.6871   19.3250   22.4299 C   0  0  0  0  0  0  0  0  0  0  0  0
   20.0840   20.2425   22.4436 H   0  0  0  0  0  0  0  0  0  0  0  0
   21.4731   19.4882   21.6811 H   0  0  0  0  0  0  0  0  0  0  0  0
   21.3345   19.1021   23.8206 C   0  0  0  0  0  0  0  0  0  0  0  0
   20.5506   18.9154   24.5663 H   0  0  0  0  0  0  0  0  0  0  0  0
   21.9601   18.1992   23.7974 H   0  0  0  0  0  0  0  0  0  0  0  0
   22.1813   20.3039   24.3058 C   0  0  0  0  0  0  0  0  0  0  0  0
   22.5043   20.1122   25.3387 H   0  0  0  0  0  0  0  0  0  0  0  0
   21.5577   21.2081   24.3426 H   0  0  0  0  0  0  0  0  0  0  0  0
   23.4316   20.5693   23.4364 C   0  0  0  0  0  0  0  0  0  0  0  0
   23.1591   20.8903   22.4235 H   0  0  0  0  0  0  0  0  0  0  0  0
   24.0556   19.6697   23.3566 H   0  0  0  0  0  0  0  0  0  0  0  0
   24.0453   21.3644   23.8793 H   0  0  0  0  0  0  0  0  0  0  0  0
   16.5273   18.5167   24.0005 C   0  0  0  0  0  0  0  0  0  0  0  0
   15.8230   19.3445   24.1095 H   0  0  0  0  0  0  0  0  0  0  0  0
   16.0139   17.6484   23.5817 H   0  0  0  0  0  0  0  0  0  0  0  0
   16.9510   18.2621   24.9745 H   0  0  0  0  0  0  0  0  0  0  0  0
  1  2  1  0  0  0  0
  1  3  1  0  0  0  0
  1  4  1  0  0  0  0
  4  5  1  0  0  0  0
  4  6  1  0  0  0  0
  4  7  1  0  0  0  0
  7  8  1  0  0  0  0
  7  9  1  0  0  0  0
  7 10  1  0  0  0  0
 10 11  1  0  0  0  0
 10 12  1  0  0  0  0
 10 13  1  0  0  0  0
 13 14  1  0  0  0  0
 13 15  1  0  0  0  0
 13 16  1  0  0  0  0
 16 17  1  0  0  0  0
 16 18  1  0  0  0  0
 16 19  1  0  0  0  0
 19 20  1  0  0  0  0
 19 21  1  0  0  0  0
 19 22  1  0  0  0  0
  1 23  1  0  0  0  0
 23 24  1  0  0  0  0
 23 25  1  0  0  0  0
 23 26  1  0  0  0  0
M  END
> <VConfSearch Rank>
973

> <Conf_Id>
126

> <Delta U+W>
1.519

> <U+W>
23.361

> <U>
72.579

> <W>
-49.218

> <W(PB)>
-51.496

> <W(SA)>
2.279

> <Valence>
2.678

> <Coulomb>
69.622

> <VdW>
0.279

> <VdW6>
-7.328

> <VdW12>
7.608

> <Bond>
0.212

> <Angle>
0.911

> <Pdih>
1.555

> <Idih>
0.000

> <Tether>
0.000

$$$$
VeraChem MOL file


 26 25  0  0  0  0  0  0  0  0999 V2000     
   21.8059   18.4700   24.7916 N   0  3  0  0  0  0  0  0  0  0  0  0
   21.3610   17.8281   24.1185 H   0  0  0  0  0  0  0  0  0  0  0  0
   21.4863   18.1606   25.7226 H   0  0  0  0  0  0  0  0  0  0  0  0
   21.3497   19.8920   24.5298 C   0  0  0  0  0  0  0  0  0  0  0  0
   21.7085   20.1839   23.5401 H   0  0  0  0  0  0  0  0  0  0  0  0
   21.8330   20.5361   25.2688 H   0  0  0  0  0  0  0  0  0  0  0  0
   19.8205   20.0815   24.6080 C   0  0  0  0  0  0  0  0  0  0  0  0
   19.4812   19.8408   25.6242 H   0  0  0  0  0  0  0  0  0  0  0  0
   19.5895   21.1437   24.4527 H   0  0  0  0  0  0  0  0  0  0  0  0
   19.0220   19.2311   23.5874 C   0  0  0  0  0  0  0  0  0  0  0  0
   17.9531   19.4205   23.7504 H   0  0  0  0  0  0  0  0  0  0  0  0
   19.1763   18.1626   23.7880 H   0  0  0  0  0  0  0  0  0  0  0  0
   19.3853   19.5459   22.1137 C   0  0  0  0  0  0  0  0  0  0  0  0
   19.2035   20.6095   21.9066 H   0  0  0  0  0  0  0  0  0  0  0  0
   20.4589   19.3798   21.9552 H   0  0  0  0  0  0  0  0  0  0  0  0
   18.6100   18.6813   21.0898 C   0  0  0  0  0  0  0  0  0  0  0  0
   18.7976   17.6161   21.2843 H   0  0  0  0  0  0  0  0  0  0  0  0
   19.0079   18.8842   20.0856 H   0  0  0  0  0  0  0  0  0  0  0  0
   17.0875   18.9488   21.0833 C   0  0  0  0  0  0  0  0  0  0  0  0
   16.8740   20.0136   20.9235 H   0  0  0  0  0  0  0  0  0  0  0  0
   16.6189   18.6413   22.0262 H   0  0  0  0  0  0  0  0  0  0  0  0
   16.6023   18.3851   20.2760 H   0  0  0  0  0  0  0  0  0  0  0  0
   23.3223   18.3845   24.6898 C   0  0  0  0  0  0  0  0  0  0  0  0
   23.6325   18.6863   23.6870 H   0  0  0  0  0  0  0  0  0  0  0  0
   23.7699   19.0496   25.4315 H   0  0  0  0  0  0  0  0  0  0  0  0
   23.6367   17.3558   24.8793 H   0  0  0  0  0  0  0  0  0  0  0  0
  1  2  1  0  0  0  0
  1  3  1  0  0  0  0
  1  4  1  0  0  0  0
  4  5  1  0  0  0  0
  4  6  1  0  0  0  0
  4  7  1  0  0  0  0
  7  8  1  0  0  0  0
  7  9  1  0  0  0  0
  7 10  1  0  0  0  0
 10 11  1  0  0  0  0
 10 12  1  0  0  0  0
 10 13  1  0  0  0  0
 13 14  1  0  0  0  0
 13 15  1  0  0  0  0
 13 16  1  0  0  0  0
 16 17  1  0  0  0  0
 16 18  1  0  0  0  0
 16 19  1  0  0  0  0
 19 20  1  0  0  0  0
 19 21  1  0  0  0  0
 19 22  1  0  0  0  0
  1 23  1  0  0  0  0
 23 24  1  0  0  0  0
 23 25  1  0  0  0  0
 23 26  1  0  0  0  0
M  END
> <VConfSearch Rank>
974

> <Conf_Id>
134

> <Delta U+W>
1.464

> <U+W>
23.306

> <U>
72.579

> <W>
-49.273

> <W(PB)>
-51.540

> <W(SA)>
2.267

> <Valence>
2.677

> <Coulomb>
69.622

> <VdW>
0.280

> <VdW6>
-7.328

> <VdW12>
7.608

> <Bond>
0.212

> <Angle>
0.911

> <Pdih>
1.555

> <Idih>
0.000

> <Tether>
0.000

$$$$
VeraChem MOL file


 26 25  0  0  0  0  0  0  0  0999 V2000     
   22.4201   18.4840   24.7993 N   0  3  0  0  0  0  0  0  0  0  0  0
   22.9312   18.6739   23.9232 H   0  0  0  0  0  0  0  0  0  0  0  0
   22.3536   17.4561   24.8612 H   0  0  0  0  0  0  0  0  0  0  0  0
   21.0343   19.0948   24.7393 C   0  0  0  0  0  0  0  0  0  0  0  0
   21.1487   20.1792   24.6665 H   0  0  0  0  0  0  0  0  0  0  0  0
   20.5257   18.8644   25.6789 H   0  0  0  0  0  0  0  0  0  0  0  0
   20.1937   18.5822   23.5560 C   0  0  0  0  0  0  0  0  0  0  0  0
   20.7224   18.8025   22.6200 H   0  0  0  0  0  0  0  0  0  0  0  0
   20.0943   17.4908   23.6240 H   0  0  0  0  0  0  0  0  0  0  0  0
   18.7904   19.2327   23.5387 C   0  0  0  0  0  0  0  0  0  0  0  0
   18.8869   20.3214   23.4312 H   0  0  0  0  0  0  0  0  0  0  0  0
   18.3089   19.0678   24.5126 H   0  0  0  0  0  0  0  0  0  0  0  0
   17.8593   18.6716   22.4327 C   0  0  0  0  0  0  0  0  0  0  0  0
   17.6832   17.6037   22.6217 H   0  0  0  0  0  0  0  0  0  0  0  0
   16.8775   19.1572   22.5191 H   0  0  0  0  0  0  0  0  0  0  0  0
   18.3762   18.8430   20.9812 C   0  0  0  0  0  0  0  0  0  0  0  0
   17.6365   18.4095   20.2936 H   0  0  0  0  0  0  0  0  0  0  0  0
   19.2969   18.2626   20.8346 H   0  0  0  0  0  0  0  0  0  0  0  0
   18.6195   20.3169   20.5846 C   0  0  0  0  0  0  0  0  0  0  0  0
   17.7169   20.9218   20.7407 H   0  0  0  0  0  0  0  0  0  0  0  0
   18.8931   20.3897   19.5241 H   0  0  0  0  0  0  0  0  0  0  0  0
   19.4363   20.7608   21.1672 H   0  0  0  0  0  0  0  0  0  0  0  0
   23.1813   19.0428   25.9935 C   0  0  0  0  0  0  0  0  0  0  0  0
   22.6389   18.8011   26.9102 H   0  0  0  0  0  0  0  0  0  0  0  0
   24.1770   18.5949   26.0250 H   0  0  0  0  0  0  0  0  0  0  0  0
   23.2675   20.1266   25.8892 H   0  0  0  0  0  0  0  0  0  0  0  0
  1  2  1  0  0  0  0
  1  3  1  0  0  0  0
  1  4  1  0  0  0  0
  4  5  1  0  0  0  0
  4  6  1  0  0  0  0
  4  7  1  0  0  0  0
  7  8  1  0  0  0  0
  7  9  1  0  0  0  0
  7 10  1  0  0  0  0
 10 11  1  0  0  0  0
 10 12  1  0  0  0  0
 10 13  1  0  0  0  0
 13 14  1  0  0  0  0
 13 15  1  0  0  0  0
 13 16  1  0  0  0  0
 16 17  1  0  0  0  0
 16 18  1  0  0  0  0
 16 19  1  0  0  0  0
 19 20  1  0  0  0  0
 19 21  1  0  0  0  0
 19 22  1  0  0  0  0
  1 23  1  0  0  0  0
 23 24  1  0  0  0  0
 23 25  1  0  0  0  0
 23 26  1  0  0  0  0
M  END
> <VConfSearch Rank>
975

> <Conf_Id>
30

> <Delta U+W>
0.910

> <U+W>
22.752

> <U>
71.870

> <W>
-49.118

> <W(PB)>
-51.409

> <W(SA)>
2.290

> <Valence>
2.682

> <Coulomb>
68.933

> <VdW>
0.255

> <VdW6>
-6.833

> <VdW12>
7.088

> <Bond>
0.205

> <Angle>
1.003

> <Pdih>
1.473

> <Idih>
0.000

> <Tether>
0.000

$$$$
VeraChem MOL file


 26 25  0  0  0  0  0  0  0  0999 V2000     
   21.1139   18.6568   25.8459 N   0  3  0  0  0  0  0  0  0  0  0  0
   20.6519   17.7786   26.1292 H   0  0  0  0  0  0  0  0  0  0  0  0
   20.4852   19.4119   26.1609 H   0  0  0  0  0  0  0  0  0  0  0  0
   21.2719   18.7018   24.3393 C   0  0  0  0  0  0  0  0  0  0  0  0
   21.9355   17.8840   24.0473 H   0  0  0  0  0  0  0  0  0  0  0  0
   21.7559   19.6471   24.0810 H   0  0  0  0  0  0  0  0  0  0  0  0
   19.9365   18.5804   23.5831 C   0  0  0  0  0  0  0  0  0  0  0  0
   19.4458   17.6371   23.8573 H   0  0  0  0  0  0  0  0  0  0  0  0
   19.2723   19.3953   23.8977 H   0  0  0  0  0  0  0  0  0  0  0  0
   20.1499   18.6306   22.0520 C   0  0  0  0  0  0  0  0  0  0  0  0
   20.8776   17.8577   21.7679 H   0  0  0  0  0  0  0  0  0  0  0  0
   20.6049   19.5899   21.7715 H   0  0  0  0  0  0  0  0  0  0  0  0
   18.8511   18.4015   21.2360 C   0  0  0  0  0  0  0  0  0  0  0  0
   19.1008   18.4128   20.1661 H   0  0  0  0  0  0  0  0  0  0  0  0
   18.4716   17.3916   21.4445 H   0  0  0  0  0  0  0  0  0  0  0  0
   17.7159   19.4248   21.4958 C   0  0  0  0  0  0  0  0  0  0  0  0
   17.3629   19.3458   22.5328 H   0  0  0  0  0  0  0  0  0  0  0  0
   16.8555   19.1594   20.8657 H   0  0  0  0  0  0  0  0  0  0  0  0
   18.1224   20.8849   21.1927 C   0  0  0  0  0  0  0  0  0  0  0  0
   18.9024   21.2363   21.8794 H   0  0  0  0  0  0  0  0  0  0  0  0
   17.2599   21.5549   21.3022 H   0  0  0  0  0  0  0  0  0  0  0  0
   18.4971   20.9852   20.1658 H   0  0  0  0  0  0  0  0  0  0  0  0
   22.4763   18.7829   26.5136 C   0  0  0  0  0  0  0  0  0  0  0  0
   22.3483   18.7489   27.5979 H   0  0  0  0  0  0  0  0  0  0  0  0
   23.1123   17.9555   26.1911 H   0  0  0  0  0  0  0  0  0  0  0  0
   22.9308   19.7333   26.2255 H   0  0  0  0  0  0  0  0  0  0  0  0
  1  2  1  0  0  0  0
  1  3  1  0  0  0  0
  1  4  1  0  0  0  0
  4  5  1  0  0  0  0
  4  6  1  0  0  0  0
  4  7  1  0  0  0  0
  7  8  1  0  0  0  0
  7  9  1  0  0  0  0
  7 10  1  0  0  0  0
 10 11  1  0  0  0  0
 10 12  1  0  0  0  0
 10 13  1  0  0  0  0
 13 14  1  0  0  0  0
 13 15  1  0  0  0  0
 13 16  1  0  0  0  0
 16 17  1  0  0  0  0
 16 18  1  0  0  0  0
 16 19  1  0  0  0  0
 19 20  1  0  0  0  0
 19 21  1  0  0  0  0
 19 22  1  0  0  0  0
  1 23  1  0  0  0  0
 23 24  1  0  0  0  0
 23 25  1  0  0  0  0
 23 26  1  0  0  0  0
M  END
> <VConfSearch Rank>
976

> <Conf_Id>
29

> <Delta U+W>
0.886

> <U+W>
22.729

> <U>
71.870

> <W>
-49.141

> <W(PB)>
-51.404

> <W(SA)>
2.262

> <Valence>
2.682

> <Coulomb>
68.933

> <VdW>
0.255

> <VdW6>
-6.833

> <VdW12>
7.088

> <Bond>
0.205

> <Angle>
1.003

> <Pdih>
1.473

> <Idih>
0.000

> <Tether>
0.000

$$$$
VeraChem MOL file


 26 25  0  0  0  0  0  0  0  0999 V2000     
   18.3162   19.4046   25.3061 N   0  3  0  0  0  0  0  0  0  0  0  0
   17.6203   18.6549   25.4423 H   0  0  0  0  0  0  0  0  0  0  0  0
   17.8542   20.1018   24.7019 H   0  0  0  0  0  0  0  0  0  0  0  0
   19.5503   18.8538   24.6208 C   0  0  0  0  0  0  0  0  0  0  0  0
   20.0011   18.1126   25.2855 H   0  0  0  0  0  0  0  0  0  0  0  0
   20.2566   19.6777   24.4936 H   0  0  0  0  0  0  0  0  0  0  0  0
   19.2520   18.2100   23.2534 C   0  0  0  0  0  0  0  0  0  0  0  0
   18.5148   17.4073   23.3871 H   0  0  0  0  0  0  0  0  0  0  0  0
   18.7855   18.9494   22.5901 H   0  0  0  0  0  0  0  0  0  0  0  0
   20.5173   17.6204   22.5822 C   0  0  0  0  0  0  0  0  0  0  0  0
   20.2355   17.1621   21.6249 H   0  0  0  0  0  0  0  0  0  0  0  0
   20.8976   16.7975   23.2032 H   0  0  0  0  0  0  0  0  0  0  0  0
   21.6670   18.6384   22.3519 C   0  0  0  0  0  0  0  0  0  0  0  0
   22.0610   18.9697   23.3221 H   0  0  0  0  0  0  0  0  0  0  0  0
   22.5001   18.1201   21.8575 H   0  0  0  0  0  0  0  0  0  0  0  0
   21.2860   19.8851   21.5134 C   0  0  0  0  0  0  0  0  0  0  0  0
   22.1694   20.5333   21.4285 H   0  0  0  0  0  0  0  0  0  0  0  0
   20.5271   20.4796   22.0396 H   0  0  0  0  0  0  0  0  0  0  0  0
   20.7851   19.5388   20.0928 C   0  0  0  0  0  0  0  0  0  0  0  0
   20.6104   20.4542   19.5127 H   0  0  0  0  0  0  0  0  0  0  0  0
   19.8404   18.9819   20.1236 H   0  0  0  0  0  0  0  0  0  0  0  0
   21.5234   18.9338   19.5508 H   0  0  0  0  0  0  0  0  0  0  0  0
   18.6998   20.0261   26.6418 C   0  0  0  0  0  0  0  0  0  0  0  0
   17.8023   20.4186   27.1252 H   0  0  0  0  0  0  0  0  0  0  0  0
   19.1560   19.2624   27.2755 H   0  0  0  0  0  0  0  0  0  0  0  0
   19.4107   20.8373   26.4696 H   0  0  0  0  0  0  0  0  0  0  0  0
  1  2  1  0  0  0  0
  1  3  1  0  0  0  0
  1  4  1  0  0  0  0
  4  5  1  0  0  0  0
  4  6  1  0  0  0  0
  4  7  1  0  0  0  0
  7  8  1  0  0  0  0
  7  9  1  0  0  0  0
  7 10  1  0  0  0  0
 10 11  1  0  0  0  0
 10 12  1  0  0  0  0
 10 13  1  0  0  0  0
 13 14  1  0  0  0  0
 13 15  1  0  0  0  0
 13 16  1  0  0  0  0
 16 17  1  0  0  0  0
 16 18  1  0  0  0  0
 16 19  1  0  0  0  0
 19 20  1  0  0  0  0
 19 21  1  0  0  0  0
 19 22  1  0  0  0  0
  1 23  1  0  0  0  0
 23 24  1  0  0  0  0
 23 25  1  0  0  0  0
 23 26  1  0  0  0  0
M  END
> <VConfSearch Rank>
977

> <Conf_Id>
82

> <Delta U+W>
1.026

> <U+W>
22.868

> <U>
72.455

> <W>
-49.586

> <W(PB)>
-51.821

> <W(SA)>
2.234

> <Valence>
2.908

> <Coulomb>
69.435

> <VdW>
0.112

> <VdW6>
-7.765

> <VdW12>
7.877

> <Bond>
0.233

> <Angle>
1.170

> <Pdih>
1.506

> <Idih>
0.000

> <Tether>
0.000

$$$$
VeraChem MOL file


 26 25  0  0  0  0  0  0  0  0999 V2000     
   18.9157   19.6918   25.5771 N   0  3  0  0  0  0  0  0  0  0  0  0
   19.8409   19.5421   26.0087 H   0  0  0  0  0  0  0  0  0  0  0  0
   18.3049   18.9625   25.9769 H   0  0  0  0  0  0  0  0  0  0  0  0
   19.0072   19.5302   24.0733 C   0  0  0  0  0  0  0  0  0  0  0  0
   19.6632   20.3169   23.6929 H   0  0  0  0  0  0  0  0  0  0  0  0
   18.0082   19.6832   23.6575 H   0  0  0  0  0  0  0  0  0  0  0  0
   19.5435   18.1526   23.6399 C   0  0  0  0  0  0  0  0  0  0  0  0
   20.5405   17.9917   24.0693 H   0  0  0  0  0  0  0  0  0  0  0  0
   18.8980   17.3681   24.0567 H   0  0  0  0  0  0  0  0  0  0  0  0
   19.5976   17.9902   22.1004 C   0  0  0  0  0  0  0  0  0  0  0  0
   18.5739   18.0308   21.7032 H   0  0  0  0  0  0  0  0  0  0  0  0
   19.9687   16.9855   21.8581 H   0  0  0  0  0  0  0  0  0  0  0  0
   20.4568   19.0528   21.3630 C   0  0  0  0  0  0  0  0  0  0  0  0
   20.4395   18.8320   20.2868 H   0  0  0  0  0  0  0  0  0  0  0  0
   19.9863   20.0397   21.4683 H   0  0  0  0  0  0  0  0  0  0  0  0
   21.9317   19.1482   21.8300 C   0  0  0  0  0  0  0  0  0  0  0  0
   21.9782   19.4723   22.8783 H   0  0  0  0  0  0  0  0  0  0  0  0
   22.4324   19.9357   21.2497 H   0  0  0  0  0  0  0  0  0  0  0  0
   22.7162   17.8278   21.6566 C   0  0  0  0  0  0  0  0  0  0  0  0
   22.3186   17.0354   22.3027 H   0  0  0  0  0  0  0  0  0  0  0  0
   23.7722   17.9703   21.9201 H   0  0  0  0  0  0  0  0  0  0  0  0
   22.6740   17.4775   20.6172 H   0  0  0  0  0  0  0  0  0  0  0  0
   18.3857   21.0778   25.9175 C   0  0  0  0  0  0  0  0  0  0  0  0
   17.3931   21.2005   25.4785 H   0  0  0  0  0  0  0  0  0  0  0  0
   18.3241   21.1811   27.0032 H   0  0  0  0  0  0  0  0  0  0  0  0
   19.0650   21.8314   25.5132 H   0  0  0  0  0  0  0  0  0  0  0  0
  1  2  1  0  0  0  0
  1  3  1  0  0  0  0
  1  4  1  0  0  0  0
  4  5  1  0  0  0  0
  4  6  1  0  0  0  0
  4  7  1  0  0  0  0
  7  8  1  0  0  0  0
  7  9  1  0  0  0  0
  7 10  1  0  0  0  0
 10 11  1  0  0  0  0
 10 12  1  0  0  0  0
 10 13  1  0  0  0  0
 13 14  1  0  0  0  0
 13 15  1  0  0  0  0
 13 16  1  0  0  0  0
 16 17  1  0  0  0  0
 16 18  1  0  0  0  0
 16 19  1  0  0  0  0
 19 20  1  0  0  0  0
 19 21  1  0  0  0  0
 19 22  1  0  0  0  0
  1 23  1  0  0  0  0
 23 24  1  0  0  0  0
 23 25  1  0  0  0  0
 23 26  1  0  0  0  0
M  END
> <VConfSearch Rank>
978

> <Conf_Id>
71

> <Delta U+W>
1.096

> <U+W>
22.938

> <U>
72.455

> <W>
-49.517

> <W(PB)>
-51.795

> <W(SA)>
2.278

> <Valence>
2.908

> <Coulomb>
69.435

> <VdW>
0.112

> <VdW6>
-7.766

> <VdW12>
7.877

> <Bond>
0.233

> <Angle>
1.170

> <Pdih>
1.506

> <Idih>
0.000

> <Tether>
0.000

$$$$
VeraChem MOL file


 26 25  0  0  0  0  0  0  0  0999 V2000     
   21.3034   21.2046   23.3599 N   0  3  0  0  0  0  0  0  0  0  0  0
   20.7501   20.9095   22.5417 H   0  0  0  0  0  0  0  0  0  0  0  0
   22.1944   21.5532   22.9722 H   0  0  0  0  0  0  0  0  0  0  0  0
   21.5718   20.0112   24.2629 C   0  0  0  0  0  0  0  0  0  0  0  0
   22.1420   20.3684   25.1242 H   0  0  0  0  0  0  0  0  0  0  0  0
   22.2067   19.3173   23.7069 H   0  0  0  0  0  0  0  0  0  0  0  0
   20.3115   19.2618   24.7523 C   0  0  0  0  0  0  0  0  0  0  0  0
   20.6271   18.4218   25.3850 H   0  0  0  0  0  0  0  0  0  0  0  0
   19.7244   19.9239   25.4017 H   0  0  0  0  0  0  0  0  0  0  0  0
   19.4062   18.7303   23.6125 C   0  0  0  0  0  0  0  0  0  0  0  0
   19.0203   19.5707   23.0203 H   0  0  0  0  0  0  0  0  0  0  0  0
   18.5304   18.2515   24.0693 H   0  0  0  0  0  0  0  0  0  0  0  0
   20.1245   17.7181   22.6838 C   0  0  0  0  0  0  0  0  0  0  0  0
   21.0177   18.1858   22.2494 H   0  0  0  0  0  0  0  0  0  0  0  0
   20.4805   16.8626   23.2742 H   0  0  0  0  0  0  0  0  0  0  0  0
   19.2358   17.2095   21.5227 C   0  0  0  0  0  0  0  0  0  0  0  0
   19.8511   16.5919   20.8535 H   0  0  0  0  0  0  0  0  0  0  0  0
   18.8871   18.0601   20.9205 H   0  0  0  0  0  0  0  0  0  0  0  0
   18.0234   16.3739   21.9937 C   0  0  0  0  0  0  0  0  0  0  0  0
   17.3101   16.9821   22.5633 H   0  0  0  0  0  0  0  0  0  0  0  0
   18.3431   15.5352   22.6256 H   0  0  0  0  0  0  0  0  0  0  0  0
   17.4859   15.9581   21.1317 H   0  0  0  0  0  0  0  0  0  0  0  0
   20.5947   22.3210   24.1179 C   0  0  0  0  0  0  0  0  0  0  0  0
   20.4464   23.1703   23.4473 H   0  0  0  0  0  0  0  0  0  0  0  0
   19.6273   21.9591   24.4719 H   0  0  0  0  0  0  0  0  0  0  0  0
   21.2105   22.6248   24.9672 H   0  0  0  0  0  0  0  0  0  0  0  0
  1  2  1  0  0  0  0
  1  3  1  0  0  0  0
  1  4  1  0  0  0  0
  4  5  1  0  0  0  0
  4  6  1  0  0  0  0
  4  7  1  0  0  0  0
  7  8  1  0  0  0  0
  7  9  1  0  0  0  0
  7 10  1  0  0  0  0
 10 11  1  0  0  0  0
 10 12  1  0  0  0  0
 10 13  1  0  0  0  0
 13 14  1  0  0  0  0
 13 15  1  0  0  0  0
 13 16  1  0  0  0  0
 16 17  1  0  0  0  0
 16 18  1  0  0  0  0
 16 19  1  0  0  0  0
 19 20  1  0  0  0  0
 19 21  1  0  0  0  0
 19 22  1  0  0  0  0
  1 23  1  0  0  0  0
 23 24  1  0  0  0  0
 23 25  1  0  0  0  0
 23 26  1  0  0  0  0
M  END
> <VConfSearch Rank>
979

> <Conf_Id>
84

> <Delta U+W>
1.456

> <U+W>
23.298

> <U>
73.042

> <W>
-49.744

> <W(PB)>
-51.966

> <W(SA)>
2.222

> <Valence>
2.938

> <Coulomb>
69.625

> <VdW>
0.478

> <VdW6>
-8.182

> <VdW12>
8.660

> <Bond>
0.253

> <Angle>
1.038

> <Pdih>
1.647

> <Idih>
0.000

> <Tether>
0.000

$$$$
VeraChem MOL file


 26 25  0  0  0  0  0  0  0  0999 V2000     
   18.5108   17.4205   22.5082 N   0  3  0  0  0  0  0  0  0  0  0  0
   18.2135   18.3765   22.7549 H   0  0  0  0  0  0  0  0  0  0  0  0
   17.9837   16.7953   23.1374 H   0  0  0  0  0  0  0  0  0  0  0  0
   20.0001   17.2641   22.7452 C   0  0  0  0  0  0  0  0  0  0  0  0
   20.5224   17.9365   22.0606 H   0  0  0  0  0  0  0  0  0  0  0  0
   20.2709   16.2377   22.4848 H   0  0  0  0  0  0  0  0  0  0  0  0
   20.4352   17.5561   24.1963 C   0  0  0  0  0  0  0  0  0  0  0  0
   19.9448   16.8407   24.8697 H   0  0  0  0  0  0  0  0  0  0  0  0
   21.5135   17.3684   24.2841 H   0  0  0  0  0  0  0  0  0  0  0  0
   20.1281   18.9994   24.6697 C   0  0  0  0  0  0  0  0  0  0  0  0
   20.4620   19.1031   25.7114 H   0  0  0  0  0  0  0  0  0  0  0  0
   19.0428   19.1668   24.6806 H   0  0  0  0  0  0  0  0  0  0  0  0
   20.8165   20.0839   23.8062 C   0  0  0  0  0  0  0  0  0  0  0  0
   21.8992   19.8984   23.7787 H   0  0  0  0  0  0  0  0  0  0  0  0
   20.4575   20.0245   22.7701 H   0  0  0  0  0  0  0  0  0  0  0  0
   20.5524   21.5051   24.3517 C   0  0  0  0  0  0  0  0  0  0  0  0
   20.9175   21.5800   25.3856 H   0  0  0  0  0  0  0  0  0  0  0  0
   19.4705   21.6957   24.3833 H   0  0  0  0  0  0  0  0  0  0  0  0
   21.2373   22.5858   23.4880 C   0  0  0  0  0  0  0  0  0  0  0  0
   22.3253   22.4417   23.4647 H   0  0  0  0  0  0  0  0  0  0  0  0
   21.0390   23.5874   23.8912 H   0  0  0  0  0  0  0  0  0  0  0  0
   20.8667   22.5594   22.4550 H   0  0  0  0  0  0  0  0  0  0  0  0
   18.1823   17.1174   21.0531 C   0  0  0  0  0  0  0  0  0  0  0  0
   18.4784   16.0912   20.8246 H   0  0  0  0  0  0  0  0  0  0  0  0
   17.1077   17.2347   20.8964 H   0  0  0  0  0  0  0  0  0  0  0  0
   18.7271   17.8118   20.4097 H   0  0  0  0  0  0  0  0  0  0  0  0
  1  2  1  0  0  0  0
  1  3  1  0  0  0  0
  1  4  1  0  0  0  0
  4  5  1  0  0  0  0
  4  6  1  0  0  0  0
  4  7  1  0  0  0  0
  7  8  1  0  0  0  0
  7  9  1  0  0  0  0
  7 10  1  0  0  0  0
 10 11  1  0  0  0  0
 10 12  1  0  0  0  0
 10 13  1  0  0  0  0
 13 14  1  0  0  0  0
 13 15  1  0  0  0  0
 13 16  1  0  0  0  0
 16 17  1  0  0  0  0
 16 18  1  0  0  0  0
 16 19  1  0  0  0  0
 19 20  1  0  0  0  0
 19 21  1  0  0  0  0
 19 22  1  0  0  0  0
  1 23  1  0  0  0  0
 23 24  1  0  0  0  0
 23 25  1  0  0  0  0
 23 26  1  0  0  0  0
M  END
> <VConfSearch Rank>
980

> <Conf_Id>
73

> <Delta U+W>
0.884

> <U+W>
22.726

> <U>
71.905

> <W>
-49.179

> <W(PB)>
-51.494

> <W(SA)>
2.315

> <Valence>
2.125

> <Coulomb>
69.686

> <VdW>
0.093

> <VdW6>
-6.766

> <VdW12>
6.859

> <Bond>
0.169

> <Angle>
0.621

> <Pdih>
1.336

> <Idih>
0.000

> <Tether>
0.000

$$$$
VeraChem MOL file


 26 25  0  0  0  0  0  0  0  0999 V2000     
   17.1525   20.2579   22.4684 N   0  3  0  0  0  0  0  0  0  0  0  0
   17.5001   21.1741   22.1451 H   0  0  0  0  0  0  0  0  0  0  0  0
   16.8272   20.4134   23.4353 H   0  0  0  0  0  0  0  0  0  0  0  0
   18.2730   19.2376   22.4514 C   0  0  0  0  0  0  0  0  0  0  0  0
   18.5932   19.1086   21.4144 H   0  0  0  0  0  0  0  0  0  0  0  0
   17.8667   18.2874   22.8071 H   0  0  0  0  0  0  0  0  0  0  0  0
   19.4784   19.6428   23.3192 C   0  0  0  0  0  0  0  0  0  0  0  0
   19.8731   20.6058   22.9688 H   0  0  0  0  0  0  0  0  0  0  0  0
   19.1490   19.7874   24.3568 H   0  0  0  0  0  0  0  0  0  0  0  0
   20.5937   18.5749   23.2713 C   0  0  0  0  0  0  0  0  0  0  0  0
   20.9167   18.4292   22.2310 H   0  0  0  0  0  0  0  0  0  0  0  0
   20.1933   17.6116   23.6171 H   0  0  0  0  0  0  0  0  0  0  0  0
   21.8097   18.9710   24.1395 C   0  0  0  0  0  0  0  0  0  0  0  0
   22.2102   19.9341   23.7937 H   0  0  0  0  0  0  0  0  0  0  0  0
   21.4869   19.1166   25.1797 H   0  0  0  0  0  0  0  0  0  0  0  0
   22.9249   17.9028   24.0914 C   0  0  0  0  0  0  0  0  0  0  0  0
   23.2531   17.7551   23.0529 H   0  0  0  0  0  0  0  0  0  0  0  0
   22.5299   16.9377   24.4388 H   0  0  0  0  0  0  0  0  0  0  0  0
   24.1375   18.3017   24.9594 C   0  0  0  0  0  0  0  0  0  0  0  0
   24.9181   17.5314   24.9125 H   0  0  0  0  0  0  0  0  0  0  0  0
   23.8474   18.4233   26.0112 H   0  0  0  0  0  0  0  0  0  0  0  0
   24.5762   19.2471   24.6144 H   0  0  0  0  0  0  0  0  0  0  0  0
   16.0046   19.7816   21.5889 C   0  0  0  0  0  0  0  0  0  0  0  0
   15.6320   18.8281   21.9698 H   0  0  0  0  0  0  0  0  0  0  0  0
   15.2048   20.5252   21.6101 H   0  0  0  0  0  0  0  0  0  0  0  0
   16.3646   19.6561   20.5654 H   0  0  0  0  0  0  0  0  0  0  0  0
  1  2  1  0  0  0  0
  1  3  1  0  0  0  0
  1  4  1  0  0  0  0
  4  5  1  0  0  0  0
  4  6  1  0  0  0  0
  4  7  1  0  0  0  0
  7  8  1  0  0  0  0
  7  9  1  0  0  0  0
  7 10  1  0  0  0  0
 10 11  1  0  0  0  0
 10 12  1  0  0  0  0
 10 13  1  0  0  0  0
 13 14  1  0  0  0  0
 13 15  1  0  0  0  0
 13 16  1  0  0  0  0
 16 17  1  0  0  0  0
 16 18  1  0  0  0  0
 16 19  1  0  0  0  0
 19 20  1  0  0  0  0
 19 21  1  0  0  0  0
 19 22  1  0  0  0  0
  1 23  1  0  0  0  0
 23 24  1  0  0  0  0
 23 25  1  0  0  0  0
 23 26  1  0  0  0  0
M  END
> <VConfSearch Rank>
981

> <Conf_Id>
11

> <Delta U+W>
0.000

> <U+W>
21.842

> <U>
70.357

> <W>
-48.515

> <W(PB)>
-50.856

> <W(SA)>
2.341

> <Valence>
1.714

> <Coulomb>
68.480

> <VdW>
0.163

> <VdW6>
-5.268

> <VdW12>
5.431

> <Bond>
0.126

> <Angle>
0.350

> <Pdih>
1.238

> <Idih>
0.000

> <Tether>
0.000

$$$$
VeraChem MOL file


 26 25  0  0  0  0  0  0  0  0999 V2000     
   19.3125   22.0817   24.5907 N   0  3  0  0  0  0  0  0  0  0  0  0
   19.8170   22.8512   25.0591 H   0  0  0  0  0  0  0  0  0  0  0  0
   18.6708   21.7092   25.3076 H   0  0  0  0  0  0  0  0  0  0  0  0
   20.3024   21.0106   24.1640 C   0  0  0  0  0  0  0  0  0  0  0  0
   20.9346   20.7904   25.0279 H   0  0  0  0  0  0  0  0  0  0  0  0
   20.9357   21.4311   23.3788 H   0  0  0  0  0  0  0  0  0  0  0  0
   19.6550   19.7006   23.6704 C   0  0  0  0  0  0  0  0  0  0  0  0
   18.9825   19.3119   24.4464 H   0  0  0  0  0  0  0  0  0  0  0  0
   19.0410   19.9013   22.7829 H   0  0  0  0  0  0  0  0  0  0  0  0
   20.7231   18.6384   23.3281 C   0  0  0  0  0  0  0  0  0  0  0  0
   21.3391   18.4389   24.2161 H   0  0  0  0  0  0  0  0  0  0  0  0
   21.3979   19.0336   22.5559 H   0  0  0  0  0  0  0  0  0  0  0  0
   20.0873   17.3192   22.8331 C   0  0  0  0  0  0  0  0  0  0  0  0
   19.4124   16.9241   23.6050 H   0  0  0  0  0  0  0  0  0  0  0  0
   19.4716   17.5184   21.9449 H   0  0  0  0  0  0  0  0  0  0  0  0
   21.1559   16.2570   22.4908 C   0  0  0  0  0  0  0  0  0  0  0  0
   21.7730   16.0523   23.3770 H   0  0  0  0  0  0  0  0  0  0  0  0
   21.8323   16.6467   21.7171 H   0  0  0  0  0  0  0  0  0  0  0  0
   20.5173   14.9413   21.9968 C   0  0  0  0  0  0  0  0  0  0  0  0
   21.2913   14.2001   21.7590 H   0  0  0  0  0  0  0  0  0  0  0  0
   19.9208   15.1077   21.0904 H   0  0  0  0  0  0  0  0  0  0  0  0
   19.8611   14.5086   22.7633 H   0  0  0  0  0  0  0  0  0  0  0  0
   18.5356   22.6239   23.3963 C   0  0  0  0  0  0  0  0  0  0  0  0
   17.9540   21.8169   22.9462 H   0  0  0  0  0  0  0  0  0  0  0  0
   17.8635   23.4148   23.7367 H   0  0  0  0  0  0  0  0  0  0  0  0
   19.2387   23.0274   22.6643 H   0  0  0  0  0  0  0  0  0  0  0  0
  1  2  1  0  0  0  0
  1  3  1  0  0  0  0
  1  4  1  0  0  0  0
  4  5  1  0  0  0  0
  4  6  1  0  0  0  0
  4  7  1  0  0  0  0
  7  8  1  0  0  0  0
  7  9  1  0  0  0  0
  7 10  1  0  0  0  0
 10 11  1  0  0  0  0
 10 12  1  0  0  0  0
 10 13  1  0  0  0  0
 13 14  1  0  0  0  0
 13 15  1  0  0  0  0
 13 16  1  0  0  0  0
 16 17  1  0  0  0  0
 16 18  1  0  0  0  0
 16 19  1  0  0  0  0
 19 20  1  0  0  0  0
 19 21  1  0  0  0  0
 19 22  1  0  0  0  0
  1 23  1  0  0  0  0
 23 24  1  0  0  0  0
 23 25  1  0  0  0  0
 23 26  1  0  0  0  0
M  END
> <VConfSearch Rank>
982

> <Conf_Id>
102

> <Delta U+W>
0.121

> <U+W>
21.963

> <U>
70.745

> <W>
-48.782

> <W(PB)>
-51.111

> <W(SA)>
2.329

> <Valence>
1.993

> <Coulomb>
68.323

> <VdW>
0.429

> <VdW6>
-5.973

> <VdW12>
6.402

> <Bond>
0.161

> <Angle>
0.472

> <Pdih>
1.360

> <Idih>
0.000

> <Tether>
0.000

$$$$
VeraChem MOL file


 26 25  0  0  0  0  0  0  0  0999 V2000     
   18.8990   22.2001   23.6025 N   0  3  0  0  0  0  0  0  0  0  0  0
   17.9128   21.9162   23.4960 H   0  0  0  0  0  0  0  0  0  0  0  0
   18.9682   23.1090   23.1175 H   0  0  0  0  0  0  0  0  0  0  0  0
   19.8122   21.1919   22.9252 C   0  0  0  0  0  0  0  0  0  0  0  0
   20.8450   21.5065   23.0941 H   0  0  0  0  0  0  0  0  0  0  0  0
   19.6132   21.2438   21.8517 H   0  0  0  0  0  0  0  0  0  0  0  0
   19.6228   19.7366   23.3996 C   0  0  0  0  0  0  0  0  0  0  0  0
   19.8498   19.6629   24.4710 H   0  0  0  0  0  0  0  0  0  0  0  0
   18.5716   19.4460   23.2722 H   0  0  0  0  0  0  0  0  0  0  0  0
   20.5301   18.7649   22.6129 C   0  0  0  0  0  0  0  0  0  0  0  0
   21.5805   19.0630   22.7377 H   0  0  0  0  0  0  0  0  0  0  0  0
   20.3040   18.8401   21.5401 H   0  0  0  0  0  0  0  0  0  0  0  0
   20.3492   17.3019   23.0780 C   0  0  0  0  0  0  0  0  0  0  0  0
   20.5755   17.2264   24.1507 H   0  0  0  0  0  0  0  0  0  0  0  0
   19.2988   17.0038   22.9536 H   0  0  0  0  0  0  0  0  0  0  0  0
   21.2567   16.3302   22.2909 C   0  0  0  0  0  0  0  0  0  0  0  0
   22.3089   16.6229   22.4141 H   0  0  0  0  0  0  0  0  0  0  0  0
   21.0322   16.4000   21.2173 H   0  0  0  0  0  0  0  0  0  0  0  0
   21.0735   14.8705   22.7583 C   0  0  0  0  0  0  0  0  0  0  0  0
   21.3240   14.7618   23.8216 H   0  0  0  0  0  0  0  0  0  0  0  0
   21.7255   14.1961   22.1881 H   0  0  0  0  0  0  0  0  0  0  0  0
   20.0372   14.5372   22.6155 H   0  0  0  0  0  0  0  0  0  0  0  0
   19.2586   22.3703   25.0743 C   0  0  0  0  0  0  0  0  0  0  0  0
   20.3004   22.6885   25.1545 H   0  0  0  0  0  0  0  0  0  0  0  0
   18.6069   23.1275   25.5158 H   0  0  0  0  0  0  0  0  0  0  0  0
   19.1201   21.4197   25.5930 H   0  0  0  0  0  0  0  0  0  0  0  0
  1  2  1  0  0  0  0
  1  3  1  0  0  0  0
  1  4  1  0  0  0  0
  4  5  1  0  0  0  0
  4  6  1  0  0  0  0
  4  7  1  0  0  0  0
  7  8  1  0  0  0  0
  7  9  1  0  0  0  0
  7 10  1  0  0  0  0
 10 11  1  0  0  0  0
 10 12  1  0  0  0  0
 10 13  1  0  0  0  0
 13 14  1  0  0  0  0
 13 15  1  0  0  0  0
 13 16  1  0  0  0  0
 16 17  1  0  0  0  0
 16 18  1  0  0  0  0
 16 19  1  0  0  0  0
 19 20  1  0  0  0  0
 19 21  1  0  0  0  0
 19 22  1  0  0  0  0
  1 23  1  0  0  0  0
 23 24  1  0  0  0  0
 23 25  1  0  0  0  0
 23 26  1  0  0  0  0
M  END
> <VConfSearch Rank>
983

> <Conf_Id>
37

> <Delta U+W>
0.125

> <U+W>
21.967

> <U>
70.745

> <W>
-48.778

> <W(PB)>
-51.115

> <W(SA)>
2.337

> <Valence>
1.993

> <Coulomb>
68.323

> <VdW>
0.429

> <VdW6>
-5.973

> <VdW12>
6.403

> <Bond>
0.161

> <Angle>
0.472

> <Pdih>
1.360

> <Idih>
0.000

> <Tether>
0.000

$$$$
VeraChem MOL file


 26 25  0  0  0  0  0  0  0  0999 V2000     
   19.2390   17.3771   25.6641 N   0  3  0  0  0  0  0  0  0  0  0  0
   19.9686   16.6760   25.8666 H   0  0  0  0  0  0  0  0  0  0  0  0
   18.4823   16.8574   25.1927 H   0  0  0  0  0  0  0  0  0  0  0  0
   19.7865   18.4512   24.7459 C   0  0  0  0  0  0  0  0  0  0  0  0
   20.5894   18.9688   25.2768 H   0  0  0  0  0  0  0  0  0  0  0  0
   18.9828   19.1660   24.5546 H   0  0  0  0  0  0  0  0  0  0  0  0
   20.3212   17.8965   23.4114 C   0  0  0  0  0  0  0  0  0  0  0  0
   21.0947   17.1456   23.6206 H   0  0  0  0  0  0  0  0  0  0  0  0
   19.5148   17.3766   22.8772 H   0  0  0  0  0  0  0  0  0  0  0  0
   20.9227   18.9951   22.5030 C   0  0  0  0  0  0  0  0  0  0  0  0
   21.3788   18.5080   21.6314 H   0  0  0  0  0  0  0  0  0  0  0  0
   21.7367   19.5058   23.0358 H   0  0  0  0  0  0  0  0  0  0  0  0
   19.8743   20.0339   22.0290 C   0  0  0  0  0  0  0  0  0  0  0  0
   19.0710   19.5251   21.4786 H   0  0  0  0  0  0  0  0  0  0  0  0
   19.4014   20.5033   22.9016 H   0  0  0  0  0  0  0  0  0  0  0  0
   20.4739   21.1555   21.1461 C   0  0  0  0  0  0  0  0  0  0  0  0
   21.2707   21.6758   21.6959 H   0  0  0  0  0  0  0  0  0  0  0  0
   19.6943   21.9058   20.9532 H   0  0  0  0  0  0  0  0  0  0  0  0
   21.0211   20.6492   19.7919 C   0  0  0  0  0  0  0  0  0  0  0  0
   21.8883   19.9911   19.9268 H   0  0  0  0  0  0  0  0  0  0  0  0
   21.3430   21.4933   19.1683 H   0  0  0  0  0  0  0  0  0  0  0  0
   20.2522   20.0966   19.2367 H   0  0  0  0  0  0  0  0  0  0  0  0
   18.7313   18.0074   26.9535 C   0  0  0  0  0  0  0  0  0  0  0  0
   17.9382   18.7201   26.7170 H   0  0  0  0  0  0  0  0  0  0  0  0
   18.3401   17.2232   27.6056 H   0  0  0  0  0  0  0  0  0  0  0  0
   19.5561   18.5228   27.4504 H   0  0  0  0  0  0  0  0  0  0  0  0
  1  2  1  0  0  0  0
  1  3  1  0  0  0  0
  1  4  1  0  0  0  0
  4  5  1  0  0  0  0
  4  6  1  0  0  0  0
  4  7  1  0  0  0  0
  7  8  1  0  0  0  0
  7  9  1  0  0  0  0
  7 10  1  0  0  0  0
 10 11  1  0  0  0  0
 10 12  1  0  0  0  0
 10 13  1  0  0  0  0
 13 14  1  0  0  0  0
 13 15  1  0  0  0  0
 13 16  1  0  0  0  0
 16 17  1  0  0  0  0
 16 18  1  0  0  0  0
 16 19  1  0  0  0  0
 19 20  1  0  0  0  0
 19 21  1  0  0  0  0
 19 22  1  0  0  0  0
  1 23  1  0  0  0  0
 23 24  1  0  0  0  0
 23 25  1  0  0  0  0
 23 26  1  0  0  0  0
M  END
> <VConfSearch Rank>
984

> <Conf_Id>
137

> <Delta U+W>
1.038

> <U+W>
22.880

> <U>
71.810

> <W>
-48.930

> <W(PB)>
-51.257

> <W(SA)>
2.327

> <Valence>
2.568

> <Coulomb>
68.877

> <VdW>
0.364

> <VdW6>
-6.470

> <VdW12>
6.834

> <Bond>
0.191

> <Angle>
0.752

> <Pdih>
1.626

> <Idih>
0.000

> <Tether>
0.000

$$$$
VeraChem MOL file


 26 25  0  0  0  0  0  0  0  0999 V2000     
   19.9343   22.0338   23.2489 N   0  3  0  0  0  0  0  0  0  0  0  0
   20.5403   22.0229   24.0840 H   0  0  0  0  0  0  0  0  0  0  0  0
   18.9692   22.0852   23.6105 H   0  0  0  0  0  0  0  0  0  0  0  0
   20.1253   20.7618   22.4473 C   0  0  0  0  0  0  0  0  0  0  0  0
   21.1582   20.7421   22.0907 H   0  0  0  0  0  0  0  0  0  0  0  0
   19.4624   20.8098   21.5797 H   0  0  0  0  0  0  0  0  0  0  0  0
   19.8314   19.4837   23.2537 C   0  0  0  0  0  0  0  0  0  0  0  0
   20.4893   19.4564   24.1313 H   0  0  0  0  0  0  0  0  0  0  0  0
   18.7979   19.5156   23.6234 H   0  0  0  0  0  0  0  0  0  0  0  0
   20.0378   18.2152   22.3926 C   0  0  0  0  0  0  0  0  0  0  0  0
   21.0845   18.1573   22.0629 H   0  0  0  0  0  0  0  0  0  0  0  0
   19.4321   18.3016   21.4797 H   0  0  0  0  0  0  0  0  0  0  0  0
   19.6486   16.9030   23.1174 C   0  0  0  0  0  0  0  0  0  0  0  0
   18.5968   16.9535   23.4315 H   0  0  0  0  0  0  0  0  0  0  0  0
   19.7150   16.0753   22.3978 H   0  0  0  0  0  0  0  0  0  0  0  0
   20.5427   16.5801   24.3382 C   0  0  0  0  0  0  0  0  0  0  0  0
   20.4314   17.3567   25.1065 H   0  0  0  0  0  0  0  0  0  0  0  0
   21.5992   16.5806   24.0352 H   0  0  0  0  0  0  0  0  0  0  0  0
   20.1891   15.2106   24.9565 C   0  0  0  0  0  0  0  0  0  0  0  0
   19.1456   15.1889   25.2970 H   0  0  0  0  0  0  0  0  0  0  0  0
   20.8301   14.9989   25.8221 H   0  0  0  0  0  0  0  0  0  0  0  0
   20.3281   14.4004   24.2289 H   0  0  0  0  0  0  0  0  0  0  0  0
   20.2441   23.2450   22.3801 C   0  0  0  0  0  0  0  0  0  0  0  0
   19.5692   23.2532   21.5214 H   0  0  0  0  0  0  0  0  0  0  0  0
   20.1027   24.1540   22.9691 H   0  0  0  0  0  0  0  0  0  0  0  0
   21.2793   23.1854   22.0367 H   0  0  0  0  0  0  0  0  0  0  0  0
  1  2  1  0  0  0  0
  1  3  1  0  0  0  0
  1  4  1  0  0  0  0
  4  5  1  0  0  0  0
  4  6  1  0  0  0  0
  4  7  1  0  0  0  0
  7  8  1  0  0  0  0
  7  9  1  0  0  0  0
  7 10  1  0  0  0  0
 10 11  1  0  0  0  0
 10 12  1  0  0  0  0
 10 13  1  0  0  0  0
 13 14  1  0  0  0  0
 13 15  1  0  0  0  0
 13 16  1  0  0  0  0
 16 17  1  0  0  0  0
 16 18  1  0  0  0  0
 16 19  1  0  0  0  0
 19 20  1  0  0  0  0
 19 21  1  0  0  0  0
 19 22  1  0  0  0  0
  1 23  1  0  0  0  0
 23 24  1  0  0  0  0
 23 25  1  0  0  0  0
 23 26  1  0  0  0  0
M  END
> <VConfSearch Rank>
985

> <Conf_Id>
35

> <Delta U+W>
0.670

> <U+W>
22.512

> <U>
71.348

> <W>
-48.837

> <W(PB)>
-51.150

> <W(SA)>
2.313

> <Valence>
2.262

> <Coulomb>
68.807

> <VdW>
0.280

> <VdW6>
-5.915

> <VdW12>
6.195

> <Bond>
0.164

> <Angle>
0.622

> <Pdih>
1.475

> <Idih>
0.000

> <Tether>
0.000

$$$$
VeraChem MOL file


 26 25  0  0  0  0  0  0  0  0999 V2000     
   20.3697   21.8620   24.2204 N   0  3  0  0  0  0  0  0  0  0  0  0
   21.2929   21.7036   24.6534 H   0  0  0  0  0  0  0  0  0  0  0  0
   19.6802   21.6465   24.9573 H   0  0  0  0  0  0  0  0  0  0  0  0
   20.1800   20.9326   23.0385 C   0  0  0  0  0  0  0  0  0  0  0  0
   20.9318   21.1879   22.2874 H   0  0  0  0  0  0  0  0  0  0  0  0
   19.1910   21.1258   22.6152 H   0  0  0  0  0  0  0  0  0  0  0  0
   20.3028   19.4433   23.4089 C   0  0  0  0  0  0  0  0  0  0  0  0
   21.2917   19.2574   23.8485 H   0  0  0  0  0  0  0  0  0  0  0  0
   19.5563   19.2039   24.1764 H   0  0  0  0  0  0  0  0  0  0  0  0
   20.1044   18.5373   22.1707 C   0  0  0  0  0  0  0  0  0  0  0  0
   20.8067   18.8488   21.3849 H   0  0  0  0  0  0  0  0  0  0  0  0
   19.0964   18.6873   21.7594 H   0  0  0  0  0  0  0  0  0  0  0  0
   20.3281   17.0325   22.4606 C   0  0  0  0  0  0  0  0  0  0  0  0
   20.2828   16.4845   21.5093 H   0  0  0  0  0  0  0  0  0  0  0  0
   21.3423   16.8800   22.8552 H   0  0  0  0  0  0  0  0  0  0  0  0
   19.2918   16.4284   23.4380 C   0  0  0  0  0  0  0  0  0  0  0  0
   18.2752   16.6260   23.0700 H   0  0  0  0  0  0  0  0  0  0  0  0
   19.3732   16.9084   24.4222 H   0  0  0  0  0  0  0  0  0  0  0  0
   19.4876   14.9064   23.6063 C   0  0  0  0  0  0  0  0  0  0  0  0
   19.3722   14.3845   22.6474 H   0  0  0  0  0  0  0  0  0  0  0  0
   18.7469   14.4951   24.3043 H   0  0  0  0  0  0  0  0  0  0  0  0
   20.4860   14.6783   24.0017 H   0  0  0  0  0  0  0  0  0  0  0  0
   20.2332   23.3094   23.7684 C   0  0  0  0  0  0  0  0  0  0  0  0
   19.2380   23.4610   23.3447 H   0  0  0  0  0  0  0  0  0  0  0  0
   20.3720   23.9680   24.6288 H   0  0  0  0  0  0  0  0  0  0  0  0
   20.9933   23.5232   23.0138 H   0  0  0  0  0  0  0  0  0  0  0  0
  1  2  1  0  0  0  0
  1  3  1  0  0  0  0
  1  4  1  0  0  0  0
  4  5  1  0  0  0  0
  4  6  1  0  0  0  0
  4  7  1  0  0  0  0
  7  8  1  0  0  0  0
  7  9  1  0  0  0  0
  7 10  1  0  0  0  0
 10 11  1  0  0  0  0
 10 12  1  0  0  0  0
 10 13  1  0  0  0  0
 13 14  1  0  0  0  0
 13 15  1  0  0  0  0
 13 16  1  0  0  0  0
 16 17  1  0  0  0  0
 16 18  1  0  0  0  0
 16 19  1  0  0  0  0
 19 20  1  0  0  0  0
 19 21  1  0  0  0  0
 19 22  1  0  0  0  0
  1 23  1  0  0  0  0
 23 24  1  0  0  0  0
 23 25  1  0  0  0  0
 23 26  1  0  0  0  0
M  END
> <VConfSearch Rank>
986

> <Conf_Id>
36

> <Delta U+W>
0.662

> <U+W>
22.504

> <U>
71.348

> <W>
-48.844

> <W(PB)>
-51.157

> <W(SA)>
2.313

> <Valence>
2.262

> <Coulomb>
68.807

> <VdW>
0.280

> <VdW6>
-5.916

> <VdW12>
6.195

> <Bond>
0.164

> <Angle>
0.622

> <Pdih>
1.475

> <Idih>
0.000

> <Tether>
0.000

$$$$
VeraChem MOL file


 26 25  0  0  0  0  0  0  0  0999 V2000     
   21.0293   21.3298   21.4513 N   0  3  0  0  0  0  0  0  0  0  0  0
   22.0316   21.0846   21.4432 H   0  0  0  0  0  0  0  0  0  0  0  0
   20.9847   22.2900   21.8267 H   0  0  0  0  0  0  0  0  0  0  0  0
   20.2657   20.3801   22.3522 C   0  0  0  0  0  0  0  0  0  0  0  0
   20.3433   19.3789   21.9219 H   0  0  0  0  0  0  0  0  0  0  0  0
   19.2148   20.6798   22.3414 H   0  0  0  0  0  0  0  0  0  0  0  0
   20.7858   20.3664   23.8026 C   0  0  0  0  0  0  0  0  0  0  0  0
   21.8423   20.0670   23.8133 H   0  0  0  0  0  0  0  0  0  0  0  0
   20.7438   21.3859   24.2085 H   0  0  0  0  0  0  0  0  0  0  0  0
   19.9698   19.4264   24.7211 C   0  0  0  0  0  0  0  0  0  0  0  0
   18.9181   19.7452   24.7301 H   0  0  0  0  0  0  0  0  0  0  0  0
   20.3358   19.5359   25.7514 H   0  0  0  0  0  0  0  0  0  0  0  0
   20.0611   17.9386   24.3041 C   0  0  0  0  0  0  0  0  0  0  0  0
   19.6523   17.8059   23.2934 H   0  0  0  0  0  0  0  0  0  0  0  0
   21.1156   17.6325   24.2637 H   0  0  0  0  0  0  0  0  0  0  0  0
   19.2967   17.0199   25.2834 C   0  0  0  0  0  0  0  0  0  0  0  0
   18.2410   17.3223   25.3284 H   0  0  0  0  0  0  0  0  0  0  0  0
   19.7033   17.1379   26.2977 H   0  0  0  0  0  0  0  0  0  0  0  0
   19.3870   15.5366   24.8656 C   0  0  0  0  0  0  0  0  0  0  0  0
   18.9557   15.3801   23.8683 H   0  0  0  0  0  0  0  0  0  0  0  0
   18.8391   14.9006   25.5729 H   0  0  0  0  0  0  0  0  0  0  0  0
   20.4302   15.1952   24.8443 H   0  0  0  0  0  0  0  0  0  0  0  0
   20.4559   21.2802   20.0419 C   0  0  0  0  0  0  0  0  0  0  0  0
   19.4047   21.5751   20.0712 H   0  0  0  0  0  0  0  0  0  0  0  0
   21.0144   21.9686   19.4036 H   0  0  0  0  0  0  0  0  0  0  0  0
   20.5444   20.2632   19.6536 H   0  0  0  0  0  0  0  0  0  0  0  0
  1  2  1  0  0  0  0
  1  3  1  0  0  0  0
  1  4  1  0  0  0  0
  4  5  1  0  0  0  0
  4  6  1  0  0  0  0
  4  7  1  0  0  0  0
  7  8  1  0  0  0  0
  7  9  1  0  0  0  0
  7 10  1  0  0  0  0
 10 11  1  0  0  0  0
 10 12  1  0  0  0  0
 10 13  1  0  0  0  0
 13 14  1  0  0  0  0
 13 15  1  0  0  0  0
 13 16  1  0  0  0  0
 16 17  1  0  0  0  0
 16 18  1  0  0  0  0
 16 19  1  0  0  0  0
 19 20  1  0  0  0  0
 19 21  1  0  0  0  0
 19 22  1  0  0  0  0
  1 23  1  0  0  0  0
 23 24  1  0  0  0  0
 23 25  1  0  0  0  0
 23 26  1  0  0  0  0
M  END
> <VConfSearch Rank>
987

> <Conf_Id>
46

> <Delta U+W>
0.496

> <U+W>
22.338

> <U>
71.138

> <W>
-48.799

> <W(PB)>
-51.136

> <W(SA)>
2.337

> <Valence>
2.016

> <Coulomb>
68.932

> <VdW>
0.190

> <VdW6>
-5.902

> <VdW12>
6.092

> <Bond>
0.149

> <Angle>
0.477

> <Pdih>
1.390

> <Idih>
0.000

> <Tether>
0.000

$$$$
VeraChem MOL file


 26 25  0  0  0  0  0  0  0  0999 V2000     
   20.9114   20.8311   21.0059 N   0  3  0  0  0  0  0  0  0  0  0  0
   20.6769   21.8347   21.0587 H   0  0  0  0  0  0  0  0  0  0  0  0
   20.2851   20.4405   20.2848 H   0  0  0  0  0  0  0  0  0  0  0  0
   20.6528   20.1627   22.3411 C   0  0  0  0  0  0  0  0  0  0  0  0
   21.3259   20.6107   23.0764 H   0  0  0  0  0  0  0  0  0  0  0  0
   20.9084   19.1054   22.2388 H   0  0  0  0  0  0  0  0  0  0  0  0
   19.1950   20.3031   22.8200 C   0  0  0  0  0  0  0  0  0  0  0  0
   18.9369   21.3690   22.8765 H   0  0  0  0  0  0  0  0  0  0  0  0
   18.5185   19.8545   22.0804 H   0  0  0  0  0  0  0  0  0  0  0  0
   18.9556   19.6547   24.2040 C   0  0  0  0  0  0  0  0  0  0  0  0
   17.9260   19.8713   24.5210 H   0  0  0  0  0  0  0  0  0  0  0  0
   19.6144   20.1245   24.9476 H   0  0  0  0  0  0  0  0  0  0  0  0
   19.1765   18.1226   24.2044 C   0  0  0  0  0  0  0  0  0  0  0  0
   18.5408   17.6597   23.4370 H   0  0  0  0  0  0  0  0  0  0  0  0
   20.2166   17.8929   23.9369 H   0  0  0  0  0  0  0  0  0  0  0  0
   18.8583   17.4971   25.5808 C   0  0  0  0  0  0  0  0  0  0  0  0
   17.8162   17.7133   25.8553 H   0  0  0  0  0  0  0  0  0  0  0  0
   19.4910   17.9572   26.3527 H   0  0  0  0  0  0  0  0  0  0  0  0
   19.0805   15.9695   25.5805 C   0  0  0  0  0  0  0  0  0  0  0  0
   18.4358   15.4768   24.8410 H   0  0  0  0  0  0  0  0  0  0  0  0
   18.8490   15.5438   26.5655 H   0  0  0  0  0  0  0  0  0  0  0  0
   20.1235   15.7220   25.3436 H   0  0  0  0  0  0  0  0  0  0  0  0
   22.3685   20.6435   20.6063 C   0  0  0  0  0  0  0  0  0  0  0  0
   22.5413   21.1296   19.6435 H   0  0  0  0  0  0  0  0  0  0  0  0
   23.0103   21.0933   21.3671 H   0  0  0  0  0  0  0  0  0  0  0  0
   22.5838   19.5759   20.5244 H   0  0  0  0  0  0  0  0  0  0  0  0
  1  2  1  0  0  0  0
  1  3  1  0  0  0  0
  1  4  1  0  0  0  0
  4  5  1  0  0  0  0
  4  6  1  0  0  0  0
  4  7  1  0  0  0  0
  7  8  1  0  0  0  0
  7  9  1  0  0  0  0
  7 10  1  0  0  0  0
 10 11  1  0  0  0  0
 10 12  1  0  0  0  0
 10 13  1  0  0  0  0
 13 14  1  0  0  0  0
 13 15  1  0  0  0  0
 13 16  1  0  0  0  0
 16 17  1  0  0  0  0
 16 18  1  0  0  0  0
 16 19  1  0  0  0  0
 19 20  1  0  0  0  0
 19 21  1  0  0  0  0
 19 22  1  0  0  0  0
  1 23  1  0  0  0  0
 23 24  1  0  0  0  0
 23 25  1  0  0  0  0
 23 26  1  0  0  0  0
M  END
> <VConfSearch Rank>
988

> <Conf_Id>
45

> <Delta U+W>
0.471

> <U+W>
22.313

> <U>
71.138

> <W>
-48.825

> <W(PB)>
-51.169

> <W(SA)>
2.344

> <Valence>
2.016

> <Coulomb>
68.932

> <VdW>
0.190

> <VdW6>
-5.902

> <VdW12>
6.092

> <Bond>
0.149

> <Angle>
0.477

> <Pdih>
1.390

> <Idih>
0.000

> <Tether>
0.000

$$$$
VeraChem MOL file


 26 25  0  0  0  0  0  0  0  0999 V2000     
   20.4423   16.7211   22.2884 N   0  3  0  0  0  0  0  0  0  0  0  0
   19.4914   17.0321   22.0391 H   0  0  0  0  0  0  0  0  0  0  0  0
   20.3753   16.3763   23.2585 H   0  0  0  0  0  0  0  0  0  0  0  0
   21.4077   17.8883   22.2149 C   0  0  0  0  0  0  0  0  0  0  0  0
   21.4447   18.2306   21.1776 H   0  0  0  0  0  0  0  0  0  0  0  0
   22.3983   17.5148   22.4865 H   0  0  0  0  0  0  0  0  0  0  0  0
   21.0349   19.0660   23.1367 C   0  0  0  0  0  0  0  0  0  0  0  0
   21.0023   18.7124   24.1749 H   0  0  0  0  0  0  0  0  0  0  0  0
   21.8362   19.8149   23.0840 H   0  0  0  0  0  0  0  0  0  0  0  0
   19.6888   19.7255   22.7446 C   0  0  0  0  0  0  0  0  0  0  0  0
   18.8650   19.0120   22.8795 H   0  0  0  0  0  0  0  0  0  0  0  0
   19.7116   19.9734   21.6742 H   0  0  0  0  0  0  0  0  0  0  0  0
   19.3801   21.0175   23.5406 C   0  0  0  0  0  0  0  0  0  0  0  0
   20.1894   21.7454   23.3904 H   0  0  0  0  0  0  0  0  0  0  0  0
   18.4731   21.4758   23.1227 H   0  0  0  0  0  0  0  0  0  0  0  0
   19.1698   20.7763   25.0544 C   0  0  0  0  0  0  0  0  0  0  0  0
   20.0913   20.3886   25.5086 H   0  0  0  0  0  0  0  0  0  0  0  0
   18.3945   20.0119   25.2045 H   0  0  0  0  0  0  0  0  0  0  0  0
   18.7583   22.0720   25.7857 C   0  0  0  0  0  0  0  0  0  0  0  0
   19.5285   22.8469   25.6791 H   0  0  0  0  0  0  0  0  0  0  0  0
   18.6161   21.8837   26.8578 H   0  0  0  0  0  0  0  0  0  0  0  0
   17.8161   22.4693   25.3862 H   0  0  0  0  0  0  0  0  0  0  0  0
   20.9017   15.6088   21.3560 C   0  0  0  0  0  0  0  0  0  0  0  0
   21.8966   15.2747   21.6585 H   0  0  0  0  0  0  0  0  0  0  0  0
   20.1980   14.7756   21.4182 H   0  0  0  0  0  0  0  0  0  0  0  0
   20.9341   15.9886   20.3325 H   0  0  0  0  0  0  0  0  0  0  0  0
  1  2  1  0  0  0  0
  1  3  1  0  0  0  0
  1  4  1  0  0  0  0
  4  5  1  0  0  0  0
  4  6  1  0  0  0  0
  4  7  1  0  0  0  0
  7  8  1  0  0  0  0
  7  9  1  0  0  0  0
  7 10  1  0  0  0  0
 10 11  1  0  0  0  0
 10 12  1  0  0  0  0
 10 13  1  0  0  0  0
 13 14  1  0  0  0  0
 13 15  1  0  0  0  0
 13 16  1  0  0  0  0
 16 17  1  0  0  0  0
 16 18  1  0  0  0  0
 16 19  1  0  0  0  0
 19 20  1  0  0  0  0
 19 21  1  0  0  0  0
 19 22  1  0  0  0  0
  1 23  1  0  0  0  0
 23 24  1  0  0  0  0
 23 25  1  0  0  0  0
 23 26  1  0  0  0  0
M  END
> <VConfSearch Rank>
989

> <Conf_Id>
143

> <Delta U+W>
0.915

> <U+W>
22.757

> <U>
71.994

> <W>
-49.237

> <W(PB)>
-51.537

> <W(SA)>
2.300

> <Valence>
2.376

> <Coulomb>
69.315

> <VdW>
0.303

> <VdW6>
-6.508

> <VdW12>
6.810

> <Bond>
0.182

> <Angle>
0.660

> <Pdih>
1.534

> <Idih>
0.000

> <Tether>
0.000

$$$$
VeraChem MOL file


 26 25  0  0  0  0  0  0  0  0999 V2000     
   17.6390   18.7225   24.3401 N   0  3  0  0  0  0  0  0  0  0  0  0
   17.8545   19.6714   24.6809 H   0  0  0  0  0  0  0  0  0  0  0  0
   17.9866   18.0812   25.0699 H   0  0  0  0  0  0  0  0  0  0  0  0
   18.3591   18.4620   23.0309 C   0  0  0  0  0  0  0  0  0  0  0  0
   17.9734   19.1639   22.2872 H   0  0  0  0  0  0  0  0  0  0  0  0
   18.1006   17.4496   22.7104 H   0  0  0  0  0  0  0  0  0  0  0  0
   19.8925   18.5918   23.1209 C   0  0  0  0  0  0  0  0  0  0  0  0
   20.2748   17.9075   23.8898 H   0  0  0  0  0  0  0  0  0  0  0  0
   20.3128   18.2635   22.1625 H   0  0  0  0  0  0  0  0  0  0  0  0
   20.3545   20.0398   23.4162 C   0  0  0  0  0  0  0  0  0  0  0  0
   19.8515   20.4075   24.3200 H   0  0  0  0  0  0  0  0  0  0  0  0
   20.0317   20.6985   22.5980 H   0  0  0  0  0  0  0  0  0  0  0  0
   21.8834   20.1928   23.6269 C   0  0  0  0  0  0  0  0  0  0  0  0
   22.0790   21.2465   23.8700 H   0  0  0  0  0  0  0  0  0  0  0  0
   22.2019   19.6227   24.5106 H   0  0  0  0  0  0  0  0  0  0  0  0
   22.7532   19.8121   22.4009 C   0  0  0  0  0  0  0  0  0  0  0  0
   23.6163   20.4913   22.3597 H   0  0  0  0  0  0  0  0  0  0  0  0
   22.1947   19.9781   21.4691 H   0  0  0  0  0  0  0  0  0  0  0  0
   23.2908   18.3627   22.4554 C   0  0  0  0  0  0  0  0  0  0  0  0
   22.4834   17.6227   22.4776 H   0  0  0  0  0  0  0  0  0  0  0  0
   23.9134   18.2094   23.3465 H   0  0  0  0  0  0  0  0  0  0  0  0
   23.9121   18.1504   21.5757 H   0  0  0  0  0  0  0  0  0  0  0  0
   16.1384   18.5524   24.1490 C   0  0  0  0  0  0  0  0  0  0  0  0
   15.9318   17.5318   23.8192 H   0  0  0  0  0  0  0  0  0  0  0  0
   15.6325   18.7428   25.0982 H   0  0  0  0  0  0  0  0  0  0  0  0
   15.7894   19.2624   23.3960 H   0  0  0  0  0  0  0  0  0  0  0  0
  1  2  1  0  0  0  0
  1  3  1  0  0  0  0
  1  4  1  0  0  0  0
  4  5  1  0  0  0  0
  4  6  1  0  0  0  0
  4  7  1  0  0  0  0
  7  8  1  0  0  0  0
  7  9  1  0  0  0  0
  7 10  1  0  0  0  0
 10 11  1  0  0  0  0
 10 12  1  0  0  0  0
 10 13  1  0  0  0  0
 13 14  1  0  0  0  0
 13 15  1  0  0  0  0
 13 16  1  0  0  0  0
 16 17  1  0  0  0  0
 16 18  1  0  0  0  0
 16 19  1  0  0  0  0
 19 20  1  0  0  0  0
 19 21  1  0  0  0  0
 19 22  1  0  0  0  0
  1 23  1  0  0  0  0
 23 24  1  0  0  0  0
 23 25  1  0  0  0  0
 23 26  1  0  0  0  0
M  END
> <VConfSearch Rank>
990

> <Conf_Id>
76

> <Delta U+W>
3.468

> <U+W>
25.310

> <U>
74.594

> <W>
-49.283

> <W(PB)>
-51.537

> <W(SA)>
2.253

> <Valence>
4.886

> <Coulomb>
69.332

> <VdW>
0.376

> <VdW6>
-7.329

> <VdW12>
7.705

> <Bond>
0.232

> <Angle>
1.251

> <Pdih>
3.403

> <Idih>
0.000

> <Tether>
0.000

$$$$
VeraChem MOL file


 26 25  0  0  0  0  0  0  0  0999 V2000     
   18.6421   19.6882   21.0847 N   0  3  0  0  0  0  0  0  0  0  0  0
   18.4937   18.6693   21.0180 H   0  0  0  0  0  0  0  0  0  0  0  0
   19.3834   19.9033   20.3999 H   0  0  0  0  0  0  0  0  0  0  0  0
   19.0967   20.0605   22.4817 C   0  0  0  0  0  0  0  0  0  0  0  0
   18.2891   19.8110   23.1747 H   0  0  0  0  0  0  0  0  0  0  0  0
   19.2502   21.1423   22.5071 H   0  0  0  0  0  0  0  0  0  0  0  0
   20.3889   19.3436   22.9132 C   0  0  0  0  0  0  0  0  0  0  0  0
   20.2343   18.2602   22.8603 H   0  0  0  0  0  0  0  0  0  0  0  0
   21.1914   19.5850   22.2036 H   0  0  0  0  0  0  0  0  0  0  0  0
   20.8167   19.7646   24.3398 C   0  0  0  0  0  0  0  0  0  0  0  0
   20.0011   19.5835   25.0536 H   0  0  0  0  0  0  0  0  0  0  0  0
   20.9830   20.8510   24.3391 H   0  0  0  0  0  0  0  0  0  0  0  0
   22.1152   19.0698   24.8272 C   0  0  0  0  0  0  0  0  0  0  0  0
   22.7700   18.8428   23.9746 H   0  0  0  0  0  0  0  0  0  0  0  0
   22.6741   19.7855   25.4461 H   0  0  0  0  0  0  0  0  0  0  0  0
   21.8890   17.7949   25.6798 C   0  0  0  0  0  0  0  0  0  0  0  0
   21.3220   18.0528   26.5852 H   0  0  0  0  0  0  0  0  0  0  0  0
   22.8660   17.4308   26.0272 H   0  0  0  0  0  0  0  0  0  0  0  0
   21.1705   16.6485   24.9349 C   0  0  0  0  0  0  0  0  0  0  0  0
   21.6757   16.4114   23.9898 H   0  0  0  0  0  0  0  0  0  0  0  0
   20.1262   16.9058   24.7196 H   0  0  0  0  0  0  0  0  0  0  0  0
   21.1626   15.7385   25.5486 H   0  0  0  0  0  0  0  0  0  0  0  0
   17.3627   20.4377   20.7394 C   0  0  0  0  0  0  0  0  0  0  0  0
   16.5843   20.1692   21.4571 H   0  0  0  0  0  0  0  0  0  0  0  0
   17.5527   21.5123   20.7843 H   0  0  0  0  0  0  0  0  0  0  0  0
   17.0463   20.1608   19.7313 H   0  0  0  0  0  0  0  0  0  0  0  0
  1  2  1  0  0  0  0
  1  3  1  0  0  0  0
  1  4  1  0  0  0  0
  4  5  1  0  0  0  0
  4  6  1  0  0  0  0
  4  7  1  0  0  0  0
  7  8  1  0  0  0  0
  7  9  1  0  0  0  0
  7 10  1  0  0  0  0
 10 11  1  0  0  0  0
 10 12  1  0  0  0  0
 10 13  1  0  0  0  0
 13 14  1  0  0  0  0
 13 15  1  0  0  0  0
 13 16  1  0  0  0  0
 16 17  1  0  0  0  0
 16 18  1  0  0  0  0
 16 19  1  0  0  0  0
 19 20  1  0  0  0  0
 19 21  1  0  0  0  0
 19 22  1  0  0  0  0
  1 23  1  0  0  0  0
 23 24  1  0  0  0  0
 23 25  1  0  0  0  0
 23 26  1  0  0  0  0
M  END
> <VConfSearch Rank>
991

> <Conf_Id>
123

> <Delta U+W>
3.101

> <U+W>
24.943

> <U>
74.070

> <W>
-49.127

> <W(PB)>
-51.421

> <W(SA)>
2.295

> <Valence>
4.690

> <Coulomb>
69.115

> <VdW>
0.266

> <VdW6>
-6.809

> <VdW12>
7.075

> <Bond>
0.212

> <Angle>
1.133

> <Pdih>
3.345

> <Idih>
0.000

> <Tether>
0.000

$$$$
VeraChem MOL file


 26 25  0  0  0  0  0  0  0  0999 V2000     
   20.1024   21.7167   23.5956 N   0  3  0  0  0  0  0  0  0  0  0  0
   19.2528   22.0041   23.0854 H   0  0  0  0  0  0  0  0  0  0  0  0
   20.8139   21.5402   22.8705 H   0  0  0  0  0  0  0  0  0  0  0  0
   19.8345   20.4481   24.3821 C   0  0  0  0  0  0  0  0  0  0  0  0
   19.0784   20.6816   25.1361 H   0  0  0  0  0  0  0  0  0  0  0  0
   20.7568   20.1704   24.8986 H   0  0  0  0  0  0  0  0  0  0  0  0
   19.3476   19.2669   23.5197 C   0  0  0  0  0  0  0  0  0  0  0  0
   19.0788   18.4424   24.1895 H   0  0  0  0  0  0  0  0  0  0  0  0
   18.4244   19.5524   22.9983 H   0  0  0  0  0  0  0  0  0  0  0  0
   20.4103   18.7994   22.4924 C   0  0  0  0  0  0  0  0  0  0  0  0
   21.3679   18.6038   22.9946 H   0  0  0  0  0  0  0  0  0  0  0  0
   20.5986   19.6194   21.7867 H   0  0  0  0  0  0  0  0  0  0  0  0
   19.9729   17.5532   21.6788 C   0  0  0  0  0  0  0  0  0  0  0  0
   18.8794   17.5293   21.5751 H   0  0  0  0  0  0  0  0  0  0  0  0
   20.3641   17.6568   20.6571 H   0  0  0  0  0  0  0  0  0  0  0  0
   20.4852   16.2012   22.2383 C   0  0  0  0  0  0  0  0  0  0  0  0
   21.5842   16.1965   22.2415 H   0  0  0  0  0  0  0  0  0  0  0  0
   20.1805   15.4010   21.5493 H   0  0  0  0  0  0  0  0  0  0  0  0
   19.9678   15.8596   23.6529 C   0  0  0  0  0  0  0  0  0  0  0  0
   18.8723   15.9123   23.6978 H   0  0  0  0  0  0  0  0  0  0  0  0
   20.3827   16.5418   24.4050 H   0  0  0  0  0  0  0  0  0  0  0  0
   20.2663   14.8415   23.9347 H   0  0  0  0  0  0  0  0  0  0  0  0
   20.5616   22.8224   24.5358 C   0  0  0  0  0  0  0  0  0  0  0  0
   21.4782   22.5079   25.0396 H   0  0  0  0  0  0  0  0  0  0  0  0
   20.7512   23.7292   23.9570 H   0  0  0  0  0  0  0  0  0  0  0  0
   19.7800   23.0132   25.2745 H   0  0  0  0  0  0  0  0  0  0  0  0
  1  2  1  0  0  0  0
  1  3  1  0  0  0  0
  1  4  1  0  0  0  0
  4  5  1  0  0  0  0
  4  6  1  0  0  0  0
  4  7  1  0  0  0  0
  7  8  1  0  0  0  0
  7  9  1  0  0  0  0
  7 10  1  0  0  0  0
 10 11  1  0  0  0  0
 10 12  1  0  0  0  0
 10 13  1  0  0  0  0
 13 14  1  0  0  0  0
 13 15  1  0  0  0  0
 13 16  1  0  0  0  0
 16 17  1  0  0  0  0
 16 18  1  0  0  0  0
 16 19  1  0  0  0  0
 19 20  1  0  0  0  0
 19 21  1  0  0  0  0
 19 22  1  0  0  0  0
  1 23  1  0  0  0  0
 23 24  1  0  0  0  0
 23 25  1  0  0  0  0
 23 26  1  0  0  0  0
M  END
> <VConfSearch Rank>
992

> <Conf_Id>
111

> <Delta U+W>
3.383

> <U+W>
25.225

> <U>
74.516

> <W>
-49.292

> <W(PB)>
-51.558

> <W(SA)>
2.266

> <Valence>
4.842

> <Coulomb>
69.333

> <VdW>
0.342

> <VdW6>
-7.369

> <VdW12>
7.711

> <Bond>
0.232

> <Angle>
1.153

> <Pdih>
3.457

> <Idih>
0.000

> <Tether>
0.000

$$$$
VeraChem MOL file


 26 25  0  0  0  0  0  0  0  0999 V2000     
   21.4628   17.1907   23.3060 N   0  3  0  0  0  0  0  0  0  0  0  0
   22.1865   17.1699   22.5708 H   0  0  0  0  0  0  0  0  0  0  0  0
   20.5616   17.2290   22.8066 H   0  0  0  0  0  0  0  0  0  0  0  0
   21.6301   18.4272   24.1673 C   0  0  0  0  0  0  0  0  0  0  0  0
   22.5987   18.3531   24.6682 H   0  0  0  0  0  0  0  0  0  0  0  0
   20.8510   18.4120   24.9330 H   0  0  0  0  0  0  0  0  0  0  0  0
   21.5618   19.7514   23.3786 C   0  0  0  0  0  0  0  0  0  0  0  0
   21.7392   20.5836   24.0728 H   0  0  0  0  0  0  0  0  0  0  0  0
   22.3852   19.7789   22.6527 H   0  0  0  0  0  0  0  0  0  0  0  0
   20.2196   19.9815   22.6385 C   0  0  0  0  0  0  0  0  0  0  0  0
   20.0723   19.2024   21.8789 H   0  0  0  0  0  0  0  0  0  0  0  0
   20.2919   20.9305   22.0916 H   0  0  0  0  0  0  0  0  0  0  0  0
   18.9969   20.0237   23.5904 C   0  0  0  0  0  0  0  0  0  0  0  0
   18.9370   19.0842   24.1554 H   0  0  0  0  0  0  0  0  0  0  0  0
   19.1330   20.8223   24.3327 H   0  0  0  0  0  0  0  0  0  0  0  0
   17.6500   20.2275   22.8547 C   0  0  0  0  0  0  0  0  0  0  0  0
   16.8331   20.1292   23.5833 H   0  0  0  0  0  0  0  0  0  0  0  0
   17.5025   19.4246   22.1189 H   0  0  0  0  0  0  0  0  0  0  0  0
   17.5294   21.6015   22.1568 C   0  0  0  0  0  0  0  0  0  0  0  0
   18.2450   21.6999   21.3312 H   0  0  0  0  0  0  0  0  0  0  0  0
   17.7057   22.4214   22.8651 H   0  0  0  0  0  0  0  0  0  0  0  0
   16.5235   21.7318   21.7371 H   0  0  0  0  0  0  0  0  0  0  0  0
   21.5419   15.9409   24.1714 C   0  0  0  0  0  0  0  0  0  0  0  0
   21.4189   15.0589   23.5389 H   0  0  0  0  0  0  0  0  0  0  0  0
   22.5154   15.9075   24.6655 H   0  0  0  0  0  0  0  0  0  0  0  0
   20.7475   15.9717   24.9202 H   0  0  0  0  0  0  0  0  0  0  0  0
  1  2  1  0  0  0  0
  1  3  1  0  0  0  0
  1  4  1  0  0  0  0
  4  5  1  0  0  0  0
  4  6  1  0  0  0  0
  4  7  1  0  0  0  0
  7  8  1  0  0  0  0
  7  9  1  0  0  0  0
  7 10  1  0  0  0  0
 10 11  1  0  0  0  0
 10 12  1  0  0  0  0
 10 13  1  0  0  0  0
 13 14  1  0  0  0  0
 13 15  1  0  0  0  0
 13 16  1  0  0  0  0
 16 17  1  0  0  0  0
 16 18  1  0  0  0  0
 16 19  1  0  0  0  0
 19 20  1  0  0  0  0
 19 21  1  0  0  0  0
 19 22  1  0  0  0  0
  1 23  1  0  0  0  0
 23 24  1  0  0  0  0
 23 25  1  0  0  0  0
 23 26  1  0  0  0  0
M  END
> <VConfSearch Rank>
993

> <Conf_Id>
126

> <Delta U+W>
1.519

> <U+W>
23.361

> <U>
72.579

> <W>
-49.218

> <W(PB)>
-51.496

> <W(SA)>
2.279

> <Valence>
2.678

> <Coulomb>
69.622

> <VdW>
0.279

> <VdW6>
-7.328

> <VdW12>
7.608

> <Bond>
0.212

> <Angle>
0.911

> <Pdih>
1.555

> <Idih>
0.000

> <Tether>
0.000

$$$$
VeraChem MOL file


 26 25  0  0  0  0  0  0  0  0999 V2000     
   21.9281   20.0621   24.4555 N   0  3  0  0  0  0  0  0  0  0  0  0
   21.0234   19.8395   24.8974 H   0  0  0  0  0  0  0  0  0  0  0  0
   21.9828   21.0923   24.4396 H   0  0  0  0  0  0  0  0  0  0  0  0
   21.9616   19.5162   23.0415 C   0  0  0  0  0  0  0  0  0  0  0  0
   21.9052   18.4268   23.0997 H   0  0  0  0  0  0  0  0  0  0  0  0
   22.9283   19.7826   22.6067 H   0  0  0  0  0  0  0  0  0  0  0  0
   20.8299   20.0504   22.1390 C   0  0  0  0  0  0  0  0  0  0  0  0
   20.9331   21.1394   22.0418 H   0  0  0  0  0  0  0  0  0  0  0  0
   20.9624   19.6401   21.1291 H   0  0  0  0  0  0  0  0  0  0  0  0
   19.4033   19.7148   22.6433 C   0  0  0  0  0  0  0  0  0  0  0  0
   18.6829   20.1643   21.9476 H   0  0  0  0  0  0  0  0  0  0  0  0
   19.2274   20.1936   23.6157 H   0  0  0  0  0  0  0  0  0  0  0  0
   19.1370   18.1917   22.7527 C   0  0  0  0  0  0  0  0  0  0  0  0
   19.2860   17.7184   21.7724 H   0  0  0  0  0  0  0  0  0  0  0  0
   19.8718   17.7368   23.4298 H   0  0  0  0  0  0  0  0  0  0  0  0
   17.7224   17.8499   23.2808 C   0  0  0  0  0  0  0  0  0  0  0  0
   17.5717   18.3107   24.2670 H   0  0  0  0  0  0  0  0  0  0  0  0
   17.6583   16.7639   23.4369 H   0  0  0  0  0  0  0  0  0  0  0  0
   16.5859   18.2816   22.3258 C   0  0  0  0  0  0  0  0  0  0  0  0
   16.7314   17.8603   21.3226 H   0  0  0  0  0  0  0  0  0  0  0  0
   16.5263   19.3731   22.2356 H   0  0  0  0  0  0  0  0  0  0  0  0
   15.6159   17.9292   22.6997 H   0  0  0  0  0  0  0  0  0  0  0  0
   23.0767   19.4769   25.2650 C   0  0  0  0  0  0  0  0  0  0  0  0
   22.9787   18.3895   25.2934 H   0  0  0  0  0  0  0  0  0  0  0  0
   24.0235   19.7510   24.7946 H   0  0  0  0  0  0  0  0  0  0  0  0
   23.0398   19.8774   26.2806 H   0  0  0  0  0  0  0  0  0  0  0  0
  1  2  1  0  0  0  0
  1  3  1  0  0  0  0
  1  4  1  0  0  0  0
  4  5  1  0  0  0  0
  4  6  1  0  0  0  0
  4  7  1  0  0  0  0
  7  8  1  0  0  0  0
  7  9  1  0  0  0  0
  7 10  1  0  0  0  0
 10 11  1  0  0  0  0
 10 12  1  0  0  0  0
 10 13  1  0  0  0  0
 13 14  1  0  0  0  0
 13 15  1  0  0  0  0
 13 16  1  0  0  0  0
 16 17  1  0  0  0  0
 16 18  1  0  0  0  0
 16 19  1  0  0  0  0
 19 20  1  0  0  0  0
 19 21  1  0  0  0  0
 19 22  1  0  0  0  0
  1 23  1  0  0  0  0
 23 24  1  0  0  0  0
 23 25  1  0  0  0  0
 23 26  1  0  0  0  0
M  END
> <VConfSearch Rank>
994

> <Conf_Id>
134

> <Delta U+W>
1.464

> <U+W>
23.306

> <U>
72.579

> <W>
-49.273

> <W(PB)>
-51.540

> <W(SA)>
2.267

> <Valence>
2.677

> <Coulomb>
69.622

> <VdW>
0.280

> <VdW6>
-7.328

> <VdW12>
7.608

> <Bond>
0.212

> <Angle>
0.911

> <Pdih>
1.555

> <Idih>
0.000

> <Tether>
0.000

$$$$
VeraChem MOL file


 26 25  0  0  0  0  0  0  0  0999 V2000     
   18.0391   20.0929   21.7490 N   0  3  0  0  0  0  0  0  0  0  0  0
   17.5281   20.2041   22.6385 H   0  0  0  0  0  0  0  0  0  0  0  0
   17.6711   19.2259   21.3274 H   0  0  0  0  0  0  0  0  0  0  0  0
   19.5252   19.9562   22.0128 C   0  0  0  0  0  0  0  0  0  0  0  0
   19.8727   20.8886   22.4648 H   0  0  0  0  0  0  0  0  0  0  0  0
   20.0266   19.8325   21.0496 H   0  0  0  0  0  0  0  0  0  0  0  0
   19.8737   18.7730   22.9338 C   0  0  0  0  0  0  0  0  0  0  0  0
   19.3506   18.8984   23.8903 H   0  0  0  0  0  0  0  0  0  0  0  0
   19.5090   17.8400   22.4840 H   0  0  0  0  0  0  0  0  0  0  0  0
   21.3989   18.6749   23.1718 C   0  0  0  0  0  0  0  0  0  0  0  0
   21.7588   19.5917   23.6576 H   0  0  0  0  0  0  0  0  0  0  0  0
   21.9092   18.6290   22.1997 H   0  0  0  0  0  0  0  0  0  0  0  0
   21.8195   17.4348   24.0028 C   0  0  0  0  0  0  0  0  0  0  0  0
   21.5520   16.5252   23.4476 H   0  0  0  0  0  0  0  0  0  0  0  0
   22.9148   17.4229   24.0878 H   0  0  0  0  0  0  0  0  0  0  0  0
   21.2063   17.3504   25.4241 C   0  0  0  0  0  0  0  0  0  0  0  0
   21.5752   16.4362   25.9099 H   0  0  0  0  0  0  0  0  0  0  0  0
   20.1158   17.2367   25.3615 H   0  0  0  0  0  0  0  0  0  0  0  0
   21.5541   18.5629   26.3173 C   0  0  0  0  0  0  0  0  0  0  0  0
   22.6403   18.7084   26.3799 H   0  0  0  0  0  0  0  0  0  0  0  0
   21.1767   18.4105   27.3367 H   0  0  0  0  0  0  0  0  0  0  0  0
   21.1046   19.4873   25.9340 H   0  0  0  0  0  0  0  0  0  0  0  0
   17.7827   21.2822   20.8337 C   0  0  0  0  0  0  0  0  0  0  0  0
   18.3059   21.1266   19.8876 H   0  0  0  0  0  0  0  0  0  0  0  0
   16.7092   21.3693   20.6516 H   0  0  0  0  0  0  0  0  0  0  0  0
   18.1503   22.1914   21.3147 H   0  0  0  0  0  0  0  0  0  0  0  0
  1  2  1  0  0  0  0
  1  3  1  0  0  0  0
  1  4  1  0  0  0  0
  4  5  1  0  0  0  0
  4  6  1  0  0  0  0
  4  7  1  0  0  0  0
  7  8  1  0  0  0  0
  7  9  1  0  0  0  0
  7 10  1  0  0  0  0
 10 11  1  0  0  0  0
 10 12  1  0  0  0  0
 10 13  1  0  0  0  0
 13 14  1  0  0  0  0
 13 15  1  0  0  0  0
 13 16  1  0  0  0  0
 16 17  1  0  0  0  0
 16 18  1  0  0  0  0
 16 19  1  0  0  0  0
 19 20  1  0  0  0  0
 19 21  1  0  0  0  0
 19 22  1  0  0  0  0
  1 23  1  0  0  0  0
 23 24  1  0  0  0  0
 23 25  1  0  0  0  0
 23 26  1  0  0  0  0
M  END
> <VConfSearch Rank>
995

> <Conf_Id>
30

> <Delta U+W>
0.910

> <U+W>
22.752

> <U>
71.870

> <W>
-49.118

> <W(PB)>
-51.409

> <W(SA)>
2.290

> <Valence>
2.682

> <Coulomb>
68.933

> <VdW>
0.255

> <VdW6>
-6.833

> <VdW12>
7.088

> <Bond>
0.205

> <Angle>
1.003

> <Pdih>
1.473

> <Idih>
0.000

> <Tether>
0.000

$$$$
VeraChem MOL file


 26 25  0  0  0  0  0  0  0  0999 V2000     
   17.3985   19.6025   24.2558 N   0  3  0  0  0  0  0  0  0  0  0  0
   17.6036   20.0163   25.1786 H   0  0  0  0  0  0  0  0  0  0  0  0
   17.3356   18.5855   24.4187 H   0  0  0  0  0  0  0  0  0  0  0  0
   18.5210   19.9083   23.2846 C   0  0  0  0  0  0  0  0  0  0  0  0
   18.5589   20.9918   23.1466 H   0  0  0  0  0  0  0  0  0  0  0  0
   18.2698   19.4477   22.3259 H   0  0  0  0  0  0  0  0  0  0  0  0
   19.8934   19.3984   23.7601 C   0  0  0  0  0  0  0  0  0  0  0  0
   20.1351   19.8512   24.7309 H   0  0  0  0  0  0  0  0  0  0  0  0
   19.8382   18.3132   23.9127 H   0  0  0  0  0  0  0  0  0  0  0  0
   21.0043   19.7349   22.7377 C   0  0  0  0  0  0  0  0  0  0  0  0
   20.9912   20.8158   22.5398 H   0  0  0  0  0  0  0  0  0  0  0  0
   20.7841   19.2504   21.7770 H   0  0  0  0  0  0  0  0  0  0  0  0
   22.4270   19.3432   23.2149 C   0  0  0  0  0  0  0  0  0  0  0  0
   23.1526   19.6532   22.4503 H   0  0  0  0  0  0  0  0  0  0  0  0
   22.6741   19.9228   24.1150 H   0  0  0  0  0  0  0  0  0  0  0  0
   22.6329   17.8371   23.5188 C   0  0  0  0  0  0  0  0  0  0  0  0
   22.0048   17.5309   24.3660 H   0  0  0  0  0  0  0  0  0  0  0  0
   23.6711   17.6856   23.8458 H   0  0  0  0  0  0  0  0  0  0  0  0
   22.3554   16.9209   22.3053 C   0  0  0  0  0  0  0  0  0  0  0  0
   21.2980   16.9481   22.0140 H   0  0  0  0  0  0  0  0  0  0  0  0
   22.6049   15.8792   22.5449 H   0  0  0  0  0  0  0  0  0  0  0  0
   22.9591   17.2200   21.4387 H   0  0  0  0  0  0  0  0  0  0  0  0
   16.0817   20.1384   23.7110 C   0  0  0  0  0  0  0  0  0  0  0  0
   15.2821   19.9118   24.4197 H   0  0  0  0  0  0  0  0  0  0  0  0
   16.1615   21.2196   23.5783 H   0  0  0  0  0  0  0  0  0  0  0  0
   15.8698   19.6623   22.7511 H   0  0  0  0  0  0  0  0  0  0  0  0
  1  2  1  0  0  0  0
  1  3  1  0  0  0  0
  1  4  1  0  0  0  0
  4  5  1  0  0  0  0
  4  6  1  0  0  0  0
  4  7  1  0  0  0  0
  7  8  1  0  0  0  0
  7  9  1  0  0  0  0
  7 10  1  0  0  0  0
 10 11  1  0  0  0  0
 10 12  1  0  0  0  0
 10 13  1  0  0  0  0
 13 14  1  0  0  0  0
 13 15  1  0  0  0  0
 13 16  1  0  0  0  0
 16 17  1  0  0  0  0
 16 18  1  0  0  0  0
 16 19  1  0  0  0  0
 19 20  1  0  0  0  0
 19 21  1  0  0  0  0
 19 22  1  0  0  0  0
  1 23  1  0  0  0  0
 23 24  1  0  0  0  0
 23 25  1  0  0  0  0
 23 26  1  0  0  0  0
M  END
> <VConfSearch Rank>
996

> <Conf_Id>
29

> <Delta U+W>
0.886

> <U+W>
22.729

> <U>
71.870

> <W>
-49.141

> <W(PB)>
-51.404

> <W(SA)>
2.262

> <Valence>
2.682

> <Coulomb>
68.933

> <VdW>
0.255

> <VdW6>
-6.833

> <VdW12>
7.088

> <Bond>
0.205

> <Angle>
1.003

> <Pdih>
1.473

> <Idih>
0.000

> <Tether>
0.000

$$$$
VeraChem MOL file


 26 25  0  0  0  0  0  0  0  0999 V2000     
   21.5906   18.0211   25.1107 N   0  3  0  0  0  0  0  0  0  0  0  0
   21.6406   18.5149   26.0154 H   0  0  0  0  0  0  0  0  0  0  0  0
   22.3599   18.4090   24.5431 H   0  0  0  0  0  0  0  0  0  0  0  0
   20.2584   18.2908   24.4410 C   0  0  0  0  0  0  0  0  0  0  0  0
   19.4724   17.8771   25.0777 H   0  0  0  0  0  0  0  0  0  0  0  0
   20.2492   17.7543   23.4892 H   0  0  0  0  0  0  0  0  0  0  0  0
   19.9918   19.7881   24.1954 C   0  0  0  0  0  0  0  0  0  0  0  0
   20.0386   20.3234   25.1530 H   0  0  0  0  0  0  0  0  0  0  0  0
   20.7887   20.2080   23.5685 H   0  0  0  0  0  0  0  0  0  0  0  0
   18.6116   20.0497   23.5431 C   0  0  0  0  0  0  0  0  0  0  0  0
   18.4754   21.1316   23.4125 H   0  0  0  0  0  0  0  0  0  0  0  0
   17.8237   19.7349   24.2413 H   0  0  0  0  0  0  0  0  0  0  0  0
   18.3857   19.3305   22.1856 C   0  0  0  0  0  0  0  0  0  0  0  0
   18.3551   18.2447   22.3484 H   0  0  0  0  0  0  0  0  0  0  0  0
   17.3897   19.5996   21.8079 H   0  0  0  0  0  0  0  0  0  0  0  0
   19.4369   19.6437   21.0903 C   0  0  0  0  0  0  0  0  0  0  0  0
   19.1815   19.0728   20.1866 H   0  0  0  0  0  0  0  0  0  0  0  0
   20.4277   19.2861   21.4011 H   0  0  0  0  0  0  0  0  0  0  0  0
   19.5140   21.1437   20.7256 C   0  0  0  0  0  0  0  0  0  0  0  0
   20.2080   21.3011   19.8898 H   0  0  0  0  0  0  0  0  0  0  0  0
   19.8720   21.7455   21.5701 H   0  0  0  0  0  0  0  0  0  0  0  0
   18.5311   21.5270   20.4225 H   0  0  0  0  0  0  0  0  0  0  0  0
   21.7763   16.5231   25.3091 C   0  0  0  0  0  0  0  0  0  0  0  0
   22.7390   16.3424   25.7925 H   0  0  0  0  0  0  0  0  0  0  0  0
   20.9698   16.1417   25.9392 H   0  0  0  0  0  0  0  0  0  0  0  0
   21.7528   16.0264   24.3367 H   0  0  0  0  0  0  0  0  0  0  0  0
  1  2  1  0  0  0  0
  1  3  1  0  0  0  0
  1  4  1  0  0  0  0
  4  5  1  0  0  0  0
  4  6  1  0  0  0  0
  4  7  1  0  0  0  0
  7  8  1  0  0  0  0
  7  9  1  0  0  0  0
  7 10  1  0  0  0  0
 10 11  1  0  0  0  0
 10 12  1  0  0  0  0
 10 13  1  0  0  0  0
 13 14  1  0  0  0  0
 13 15  1  0  0  0  0
 13 16  1  0  0  0  0
 16 17  1  0  0  0  0
 16 18  1  0  0  0  0
 16 19  1  0  0  0  0
 19 20  1  0  0  0  0
 19 21  1  0  0  0  0
 19 22  1  0  0  0  0
  1 23  1  0  0  0  0
 23 24  1  0  0  0  0
 23 25  1  0  0  0  0
 23 26  1  0  0  0  0
M  END
> <VConfSearch Rank>
997

> <Conf_Id>
82

> <Delta U+W>
1.026

> <U+W>
22.868

> <U>
72.455

> <W>
-49.586

> <W(PB)>
-51.821

> <W(SA)>
2.234

> <Valence>
2.908

> <Coulomb>
69.435

> <VdW>
0.112

> <VdW6>
-7.765

> <VdW12>
7.877

> <Bond>
0.233

> <Angle>
1.170

> <Pdih>
1.506

> <Idih>
0.000

> <Tether>
0.000

$$$$
VeraChem MOL file


 26 25  0  0  0  0  0  0  0  0999 V2000     
   22.1372   19.6154   21.7099 N   0  3  0  0  0  0  0  0  0  0  0  0
   22.4564   18.6600   21.9333 H   0  0  0  0  0  0  0  0  0  0  0  0
   22.8621   20.2433   22.0907 H   0  0  0  0  0  0  0  0  0  0  0  0
   20.8044   19.8911   22.3761 C   0  0  0  0  0  0  0  0  0  0  0  0
   20.0696   19.2052   21.9479 H   0  0  0  0  0  0  0  0  0  0  0  0
   20.5089   20.9131   22.1263 H   0  0  0  0  0  0  0  0  0  0  0  0
   20.8418   19.7221   23.9069 C   0  0  0  0  0  0  0  0  0  0  0  0
   21.1530   18.7003   24.1591 H   0  0  0  0  0  0  0  0  0  0  0  0
   21.6077   20.3894   24.3237 H   0  0  0  0  0  0  0  0  0  0  0  0
   19.4820   20.0418   24.5763 C   0  0  0  0  0  0  0  0  0  0  0  0
   19.2489   21.1036   24.4165 H   0  0  0  0  0  0  0  0  0  0  0  0
   19.5798   19.9212   25.6635 H   0  0  0  0  0  0  0  0  0  0  0  0
   18.2881   19.1908   24.0650 C   0  0  0  0  0  0  0  0  0  0  0  0
   17.3853   19.4863   24.6170 H   0  0  0  0  0  0  0  0  0  0  0  0
   18.0855   19.4401   23.0147 H   0  0  0  0  0  0  0  0  0  0  0  0
   18.4703   17.6566   24.1899 C   0  0  0  0  0  0  0  0  0  0  0  0
   19.3050   17.3205   23.5602 H   0  0  0  0  0  0  0  0  0  0  0  0
   17.5739   17.1637   23.7883 H   0  0  0  0  0  0  0  0  0  0  0  0
   18.6895   17.1815   25.6442 C   0  0  0  0  0  0  0  0  0  0  0  0
   19.6333   17.5618   26.0541 H   0  0  0  0  0  0  0  0  0  0  0  0
   18.7274   16.0855   25.6893 H   0  0  0  0  0  0  0  0  0  0  0  0
   17.8720   17.5162   26.2959 H   0  0  0  0  0  0  0  0  0  0  0  0
   22.0105   19.7975   20.2038 C   0  0  0  0  0  0  0  0  0  0  0  0
   21.7040   20.8240   19.9908 H   0  0  0  0  0  0  0  0  0  0  0  0
   22.9769   19.5965   19.7361 H   0  0  0  0  0  0  0  0  0  0  0  0
   21.2626   19.1006   19.8193 H   0  0  0  0  0  0  0  0  0  0  0  0
  1  2  1  0  0  0  0
  1  3  1  0  0  0  0
  1  4  1  0  0  0  0
  4  5  1  0  0  0  0
  4  6  1  0  0  0  0
  4  7  1  0  0  0  0
  7  8  1  0  0  0  0
  7  9  1  0  0  0  0
  7 10  1  0  0  0  0
 10 11  1  0  0  0  0
 10 12  1  0  0  0  0
 10 13  1  0  0  0  0
 13 14  1  0  0  0  0
 13 15  1  0  0  0  0
 13 16  1  0  0  0  0
 16 17  1  0  0  0  0
 16 18  1  0  0  0  0
 16 19  1  0  0  0  0
 19 20  1  0  0  0  0
 19 21  1  0  0  0  0
 19 22  1  0  0  0  0
  1 23  1  0  0  0  0
 23 24  1  0  0  0  0
 23 25  1  0  0  0  0
 23 26  1  0  0  0  0
M  END
> <VConfSearch Rank>
998

> <Conf_Id>
71

> <Delta U+W>
1.096

> <U+W>
22.938

> <U>
72.455

> <W>
-49.517

> <W(PB)>
-51.795

> <W(SA)>
2.278

> <Valence>
2.908

> <Coulomb>
69.435

> <VdW>
0.112

> <VdW6>
-7.766

> <VdW12>
7.877

> <Bond>
0.233

> <Angle>
1.170

> <Pdih>
1.506

> <Idih>
0.000

> <Tether>
0.000

$$$$
VeraChem MOL file


 26 25  0  0  0  0  0  0  0  0999 V2000     
   17.6333   18.5927   23.0224 N   0  3  0  0  0  0  0  0  0  0  0  0
   18.0688   18.8612   23.9174 H   0  0  0  0  0  0  0  0  0  0  0  0
   17.0125   17.8001   23.2509 H   0  0  0  0  0  0  0  0  0  0  0  0
   18.7018   18.1377   22.0410 C   0  0  0  0  0  0  0  0  0  0  0  0
   18.2030   17.8811   21.1030 H   0  0  0  0  0  0  0  0  0  0  0  0
   19.1468   17.2244   22.4430 H   0  0  0  0  0  0  0  0  0  0  0  0
   19.8216   19.1671   21.7661 C   0  0  0  0  0  0  0  0  0  0  0  0
   20.5337   18.7285   21.0546 H   0  0  0  0  0  0  0  0  0  0  0  0
   19.3938   20.0434   21.2622 H   0  0  0  0  0  0  0  0  0  0  0  0
   20.5850   19.6286   23.0332 C   0  0  0  0  0  0  0  0  0  0  0  0
   19.8957   20.1404   23.7179 H   0  0  0  0  0  0  0  0  0  0  0  0
   21.3260   20.3791   22.7291 H   0  0  0  0  0  0  0  0  0  0  0  0
   21.2970   18.4678   23.7737 C   0  0  0  0  0  0  0  0  0  0  0  0
   20.5614   17.7018   24.0522 H   0  0  0  0  0  0  0  0  0  0  0  0
   22.0099   17.9787   23.0957 H   0  0  0  0  0  0  0  0  0  0  0  0
   22.0329   18.9169   25.0596 C   0  0  0  0  0  0  0  0  0  0  0  0
   22.4091   18.0246   25.5793 H   0  0  0  0  0  0  0  0  0  0  0  0
   21.3220   19.3954   25.7476 H   0  0  0  0  0  0  0  0  0  0  0  0
   23.2189   19.8712   24.7906 C   0  0  0  0  0  0  0  0  0  0  0  0
   22.8802   20.8331   24.3864 H   0  0  0  0  0  0  0  0  0  0  0  0
   23.9284   19.4291   24.0792 H   0  0  0  0  0  0  0  0  0  0  0  0
   23.7630   20.0789   25.7210 H   0  0  0  0  0  0  0  0  0  0  0  0
   16.8154   19.7453   22.4515 C   0  0  0  0  0  0  0  0  0  0  0  0
   16.0410   20.0241   23.1695 H   0  0  0  0  0  0  0  0  0  0  0  0
   17.4722   20.5984   22.2698 H   0  0  0  0  0  0  0  0  0  0  0  0
   16.3527   19.4272   21.5148 H   0  0  0  0  0  0  0  0  0  0  0  0
  1  2  1  0  0  0  0
  1  3  1  0  0  0  0
  1  4  1  0  0  0  0
  4  5  1  0  0  0  0
  4  6  1  0  0  0  0
  4  7  1  0  0  0  0
  7  8  1  0  0  0  0
  7  9  1  0  0  0  0
  7 10  1  0  0  0  0
 10 11  1  0  0  0  0
 10 12  1  0  0  0  0
 10 13  1  0  0  0  0
 13 14  1  0  0  0  0
 13 15  1  0  0  0  0
 13 16  1  0  0  0  0
 16 17  1  0  0  0  0
 16 18  1  0  0  0  0
 16 19  1  0  0  0  0
 19 20  1  0  0  0  0
 19 21  1  0  0  0  0
 19 22  1  0  0  0  0
  1 23  1  0  0  0  0
 23 24  1  0  0  0  0
 23 25  1  0  0  0  0
 23 26  1  0  0  0  0
M  END
> <VConfSearch Rank>
999

> <Conf_Id>
84

> <Delta U+W>
1.456

> <U+W>
23.298

> <U>
73.042

> <W>
-49.744

> <W(PB)>
-51.966

> <W(SA)>
2.222

> <Valence>
2.938

> <Coulomb>
69.625

> <VdW>
0.478

> <VdW6>
-8.182

> <VdW12>
8.660

> <Bond>
0.253

> <Angle>
1.038

> <Pdih>
1.647

> <Idih>
0.000

> <Tether>
0.000

$$$$
VeraChem MOL file


 26 25  0  0  0  0  0  0  0  0999 V2000     
   18.7028   21.0134   22.5990 N   0  3  0  0  0  0  0  0  0  0  0  0
   18.7703   20.1338   22.0654 H   0  0  0  0  0  0  0  0  0  0  0  0
   19.0635   21.7476   21.9701 H   0  0  0  0  0  0  0  0  0  0  0  0
   19.5594   20.9289   23.8471 C   0  0  0  0  0  0  0  0  0  0  0  0
   19.1452   20.1465   24.4874 H   0  0  0  0  0  0  0  0  0  0  0  0
   19.4702   21.8817   24.3751 H   0  0  0  0  0  0  0  0  0  0  0  0
   21.0477   20.6376   23.5640 C   0  0  0  0  0  0  0  0  0  0  0  0
   21.4667   21.4565   22.9643 H   0  0  0  0  0  0  0  0  0  0  0  0
   21.5945   20.6457   24.5162 H   0  0  0  0  0  0  0  0  0  0  0  0
   21.3016   19.2906   22.8411 C   0  0  0  0  0  0  0  0  0  0  0  0
   22.3824   19.1821   22.6752 H   0  0  0  0  0  0  0  0  0  0  0  0
   20.8416   19.3084   21.8440 H   0  0  0  0  0  0  0  0  0  0  0  0
   20.7850   18.0660   23.6342 C   0  0  0  0  0  0  0  0  0  0  0  0
   21.2294   18.0657   24.6392 H   0  0  0  0  0  0  0  0  0  0  0  0
   19.6971   18.1353   23.7679 H   0  0  0  0  0  0  0  0  0  0  0  0
   21.1229   16.7369   22.9226 C   0  0  0  0  0  0  0  0  0  0  0  0
   22.2109   16.6513   22.7926 H   0  0  0  0  0  0  0  0  0  0  0  0
   20.6824   16.7323   21.9157 H   0  0  0  0  0  0  0  0  0  0  0  0
   20.6048   15.5167   23.7134 C   0  0  0  0  0  0  0  0  0  0  0  0
   21.0540   15.4749   24.7142 H   0  0  0  0  0  0  0  0  0  0  0  0
   20.8547   14.5830   23.1930 H   0  0  0  0  0  0  0  0  0  0  0  0
   19.5138   15.5555   23.8297 H   0  0  0  0  0  0  0  0  0  0  0  0
   17.2568   21.2976   22.9805 C   0  0  0  0  0  0  0  0  0  0  0  0
   17.2073   22.2475   23.5173 H   0  0  0  0  0  0  0  0  0  0  0  0
   16.6515   21.3549   22.0730 H   0  0  0  0  0  0  0  0  0  0  0  0
   16.8888   20.4918   23.6193 H   0  0  0  0  0  0  0  0  0  0  0  0
  1  2  1  0  0  0  0
  1  3  1  0  0  0  0
  1  4  1  0  0  0  0
  4  5  1  0  0  0  0
  4  6  1  0  0  0  0
  4  7  1  0  0  0  0
  7  8  1  0  0  0  0
  7  9  1  0  0  0  0
  7 10  1  0  0  0  0
 10 11  1  0  0  0  0
 10 12  1  0  0  0  0
 10 13  1  0  0  0  0
 13 14  1  0  0  0  0
 13 15  1  0  0  0  0
 13 16  1  0  0  0  0
 16 17  1  0  0  0  0
 16 18  1  0  0  0  0
 16 19  1  0  0  0  0
 19 20  1  0  0  0  0
 19 21  1  0  0  0  0
 19 22  1  0  0  0  0
  1 23  1  0  0  0  0
 23 24  1  0  0  0  0
 23 25  1  0  0  0  0
 23 26  1  0  0  0  0
M  END
> <VConfSearch Rank>
1000

> <Conf_Id>
73

> <Delta U+W>
0.884

> <U+W>
22.726

> <U>
71.905

> <W>
-49.179

> <W(PB)>
-51.494

> <W(SA)>
2.315

> <Valence>
2.125

> <Coulomb>
69.686

> <VdW>
0.093

> <VdW6>
-6.766

> <VdW12>
6.859

> <Bond>
0.169

> <Angle>
0.621

> <Pdih>
1.336

> <Idih>
0.000

> <Tether>
0.000

$$$$
